Version 4
SHEET 1 8000 8000
TEXT 64 16 Left 4 ;VFD-filament regulator for ILC1-1/8 (tube=ilc11_8)
SYMBOL voltage 64 64 R0
SYMATTR InstName Vcc
SYMATTR Value 9.0
WIRE 80 64 80 0
FLAG 80 0 vcc
WIRE 80 160 80 224
FLAG 80 224 0
SYMBOL voltage 320 64 R0
SYMATTR InstName Vee
SYMATTR Value -9.0
WIRE 336 64 336 0
FLAG 336 0 vee
WIRE 336 160 336 224
FLAG 336 224 0
SYMBOL voltage 576 64 R0
SYMATTR InstName Vcc_buf
SYMATTR Value 1.4
WIRE 592 64 592 0
FLAG 592 0 vcc_buf
WIRE 592 160 592 224
FLAG 592 224 0
SYMBOL voltage 832 64 R0
SYMATTR InstName Vee_buf
SYMATTR Value -1.4
WIRE 848 64 848 0
FLAG 848 0 vee_buf
WIRE 848 160 848 224
FLAG 848 224 0
SYMBOL res 1088 64 R0
SYMATTR InstName R1
SYMATTR Value 10000
WIRE 1104 80 1104 16
FLAG 1104 16 v_osc
WIRE 1104 160 1104 224
FLAG 1104 224 ns
SYMBOL cap 1344 64 R0
SYMATTR InstName C1
SYMATTR Value 1.591500e-08
WIRE 1360 64 1360 0
FLAG 1360 0 ns
WIRE 1360 128 1360 192
FLAG 1360 192 np
SYMBOL res 1600 64 R0
SYMATTR InstName R2
SYMATTR Value 10000
WIRE 1616 80 1616 16
FLAG 1616 16 np
WIRE 1616 160 1616 224
FLAG 1616 224 0
SYMBOL cap 1856 64 R0
SYMATTR InstName C2
SYMATTR Value 1.591500e-08
WIRE 1872 64 1872 0
FLAG 1872 0 np
WIRE 1872 128 1872 192
FLAG 1872 192 0
SYMBOL res 64 320 R0
SYMATTR InstName Rg
SYMATTR Value 10k
WIRE 80 336 80 272
FLAG 80 272 nn
WIRE 80 416 80 480
FLAG 80 480 0
SYMBOL res 320 320 R0
SYMATTR InstName Rfa
SYMATTR Value 10k
WIRE 336 336 336 272
FLAG 336 272 nn
WIRE 336 416 336 480
FLAG 336 480 fb
SYMBOL res 576 320 R0
SYMATTR InstName Rfb
SYMATTR Value 12k
WIRE 592 336 592 272
FLAG 592 272 fb
WIRE 592 416 592 480
FLAG 592 480 v_osc
SYMBOL npn 832 320 R0
SYMATTR InstName Q1
SYMATTR Value Q2N3904
WIRE 896 336 896 272
FLAG 896 272 fb
WIRE 848 384 784 384
FLAG 784 384 b1
WIRE 896 416 896 480
FLAG 896 480 v_osc
SYMBOL npn 1088 320 R0
SYMATTR InstName Q2
SYMATTR Value Q2N3904
WIRE 1152 336 1152 272
FLAG 1152 272 v_osc
WIRE 1104 384 1040 384
FLAG 1040 384 b2
WIRE 1152 416 1152 480
FLAG 1152 480 fb
SYMBOL res 1344 320 R0
SYMATTR InstName Rtop1
SYMATTR Value 120000
WIRE 1360 336 1360 272
FLAG 1360 272 fb
WIRE 1360 416 1360 480
FLAG 1360 480 b1
SYMBOL res 1600 320 R0
SYMATTR InstName Rbot1
SYMATTR Value 120000
WIRE 1616 336 1616 272
FLAG 1616 272 b1
WIRE 1616 416 1616 480
FLAG 1616 480 v_osc
SYMBOL res 1856 320 R0
SYMATTR InstName Rtop2
SYMATTR Value 120000
WIRE 1872 336 1872 272
FLAG 1872 272 v_osc
WIRE 1872 416 1872 480
FLAG 1872 480 b2
SYMBOL res 64 576 R0
SYMATTR InstName Rbot2
SYMATTR Value 120000
WIRE 80 592 80 528
FLAG 80 528 b2
WIRE 80 672 80 736
FLAG 80 736 fb
SYMBOL opamp2 320 576 R0
SYMATTR InstName XU_osc
SYMATTR Value uopamp_lvl2
SYMATTR Value2 Avol=10meg GBW=4.5meg Rin=100g Rout=10 Iq=600u Ilimit=65m Vrail=100m Vmax=40 Vos=2.500000e-03
WIRE 320 608 256 608
FLAG 256 608 np
WIRE 320 640 256 640
FLAG 256 640 nn
WIRE 352 576 352 512
FLAG 352 512 vcc
WIRE 352 672 352 736
FLAG 352 736 vee
WIRE 416 624 480 624
FLAG 480 624 v_osc
SYMBOL res 576 576 R0
SYMATTR InstName R_ap1
SYMATTR Value 1590
WIRE 592 592 592 528
FLAG 592 528 v_drv_atten
WIRE 592 672 592 736
FLAG 592 736 n_ap_minus
SYMBOL res 832 576 R0
SYMATTR InstName R_ap2
SYMATTR Value 1590
WIRE 848 592 848 528
FLAG 848 528 v_ap
WIRE 848 672 848 736
FLAG 848 736 n_ap_minus
SYMBOL opamp2 1088 576 R0
SYMATTR InstName X_H11F
SYMATTR Value uopamp_lvl2
SYMATTR Value2 H11F_BETA_SCALE=1
WIRE 1088 608 1024 608
FLAG 1024 608 vcc
WIRE 1088 640 1024 640
FLAG 1024 640 n_led_cathode
WIRE 1120 576 1120 512
FLAG 1120 512 v_drv_atten
WIRE 1120 672 1120 736
FLAG 1120 736 n_ap_plus
WIRE 1184 624 1248 624
FLAG 1248 624 H11F1
SYMBOL cap 1344 576 R0
SYMATTR InstName C_ap
SYMATTR Value 4.700000e-07
WIRE 1360 576 1360 512
FLAG 1360 512 n_ap_plus
WIRE 1360 640 1360 704
FLAG 1360 704 0
SYMBOL opamp2 1600 576 R0
SYMATTR InstName XU_ap
SYMATTR Value uopamp_lvl2
SYMATTR Value2 Avol=10meg GBW=4.5meg Rin=100g Rout=10 Iq=600u Ilimit=65m Vrail=100m Vmax=40 Vos=2.500000e-03
WIRE 1600 608 1536 608
FLAG 1536 608 n_ap_plus
WIRE 1600 640 1536 640
FLAG 1536 640 n_ap_minus
WIRE 1632 576 1632 512
FLAG 1632 512 vcc
WIRE 1632 672 1632 736
FLAG 1632 736 vee
WIRE 1696 624 1760 624
FLAG 1760 624 v_ap
SYMBOL bi 1856 576 R0
SYMATTR InstName B_fil
SYMATTR Value I = (V(v_top) - V(v_bot)) / (R_amb * (max(V(T_node),T_amb)/T_amb)^fil_exp)
WIRE 1872 576 1872 512
FLAG 1872 512 v_top
WIRE 1872 656 1872 720
FLAG 1872 720 v_bot
SYMBOL bi 64 832 R0
SYMATTR InstName B_pelec
SYMATTR Value I = (V(v_top)-V(v_bot))*(V(v_top)-V(v_bot)) / (R_amb * (max(V(T_node),T_amb)/T_amb)^fil_exp)
WIRE 80 832 80 768
FLAG 80 768 0
WIRE 80 912 80 976
FLAG 80 976 T_node
SYMBOL bi 320 832 R0
SYMATTR InstName B_prad
SYMATTR Value I = sigma_eps_A * (max(V(T_node),T_amb)^4 - T_amb^4)
WIRE 336 832 336 768
FLAG 336 768 T_node
WIRE 336 912 336 976
FLAG 336 976 0
SYMBOL cap 576 832 R0
SYMATTR InstName C_th
SYMATTR Value {C_th}
WIRE 592 832 592 768
FLAG 592 768 T_node
WIRE 592 896 592 960
FLAG 592 960 0
SYMBOL bv 832 832 R0
SYMATTR InstName B_R
SYMATTR Value V = R_amb * (max(V(T_node),T_amb)/T_amb)^fil_exp
WIRE 848 832 848 768
FLAG 848 768 r_fil
WIRE 848 912 848 976
FLAG 848 976 0
SYMBOL opamp2 1088 832 R0
SYMATTR InstName X_filament
SYMATTR Value uopamp_lvl2
WIRE 1088 864 1024 864
FLAG 1024 864 v_osc_drive
WIRE 1088 896 1024 896
FLAG 1024 896 node_A
WIRE 1120 832 1120 768
FLAG 1120 768 T_node
WIRE 1120 928 1120 992
FLAG 1120 992 r_fil
WIRE 1184 880 1248 880
FLAG 1248 880 filament
SYMBOL res 1344 832 R0
SYMATTR InstName R_sen
SYMATTR Value 2
WIRE 1360 848 1360 784
FLAG 1360 784 node_A
WIRE 1360 928 1360 992
FLAG 1360 992 v_ap_drive
SYMBOL res 1600 832 R0
SYMATTR InstName R_top_ref
SYMATTR Value 800
WIRE 1616 848 1616 784
FLAG 1616 784 v_osc_drive
WIRE 1616 928 1616 992
FLAG 1616 992 node_B
SYMBOL res 1856 832 R0
SYMATTR InstName R_bot_ref
SYMATTR Value 200
WIRE 1872 848 1872 784
FLAG 1872 784 node_B
WIRE 1872 928 1872 992
FLAG 1872 992 v_ap_drive
SYMBOL res 64 1088 R0
SYMATTR InstName R_a1
SYMATTR Value 1e+06
WIRE 80 1104 80 1040
FLAG 80 1040 node_A
WIRE 80 1184 80 1248
FLAG 80 1248 n_diff_plus
SYMBOL res 320 1088 R0
SYMATTR InstName R_a2
SYMATTR Value 1e+06
WIRE 336 1104 336 1040
FLAG 336 1040 n_diff_plus
WIRE 336 1184 336 1248
FLAG 336 1248 0
SYMBOL res 576 1088 R0
SYMATTR InstName R_b1
SYMATTR Value 1e+06
WIRE 592 1104 592 1040
FLAG 592 1040 node_B
WIRE 592 1184 592 1248
FLAG 592 1248 n_diff_minus
SYMBOL res 832 1088 R0
SYMATTR InstName R_b2
SYMATTR Value 1e+06
WIRE 848 1104 848 1040
FLAG 848 1040 n_diff_minus
WIRE 848 1184 848 1248
FLAG 848 1248 n_diff
SYMBOL opamp2 1088 1088 R0
SYMATTR InstName XU_diff
SYMATTR Value uopamp_lvl2
SYMATTR Value2 Avol=10meg GBW=4.5meg Rin=100g Rout=10 Iq=600u Ilimit=65m Vrail=100m Vmax=40 Vos=2.500000e-03
WIRE 1088 1120 1024 1120
FLAG 1024 1120 n_diff_plus
WIRE 1088 1152 1024 1152
FLAG 1024 1152 n_diff_minus
WIRE 1120 1088 1120 1024
FLAG 1120 1024 vcc
WIRE 1120 1184 1120 1248
FLAG 1120 1248 vee
WIRE 1184 1136 1248 1136
FLAG 1248 1136 n_diff
SYMBOL opamp2 1344 1088 R0
SYMATTR InstName XU_cmp
SYMATTR Value uopamp_lvl2
SYMATTR Value2 Avol=10meg GBW=4.5meg Rin=100g Rout=10 Iq=600u Ilimit=65m Vrail=100m Vmax=40 Vos=2.500000e-03
WIRE 1344 1120 1280 1120
FLAG 1280 1120 0
WIRE 1344 1152 1280 1152
FLAG 1280 1152 v_osc
WIRE 1376 1088 1376 1024
FLAG 1376 1024 vcc
WIRE 1376 1184 1376 1248
FLAG 1376 1248 vee
WIRE 1440 1136 1504 1136
FLAG 1504 1136 n_cmp
SYMBOL sw 1600 1088 R0
SYMATTR InstName S1
SYMATTR Value swMod
WIRE 1568 1072 1568 1008
FLAG 1568 1008 n_diff
WIRE 1632 1072 1632 1008
FLAG 1632 1008 vplus
WIRE 1568 1104 1568 1168
FLAG 1568 1168 n_cmp
WIRE 1632 1104 1632 1168
FLAG 1632 1168 0
SYMBOL sw 1856 1088 R0
SYMATTR InstName S2
SYMATTR Value swMod
WIRE 1824 1072 1824 1008
FLAG 1824 1008 0
WIRE 1888 1072 1888 1008
FLAG 1888 1008 vplus
WIRE 1824 1104 1824 1168
FLAG 1824 1168 0
WIRE 1888 1104 1888 1168
FLAG 1888 1168 n_cmp
SYMBOL res 64 1344 R0
SYMATTR InstName R_bias
SYMATTR Value 1Meg
WIRE 80 1360 80 1296
FLAG 80 1296 vplus
WIRE 80 1440 80 1504
FLAG 80 1504 0
SYMBOL res 320 1344 R0
SYMATTR InstName R_din
SYMATTR Value 10k
WIRE 336 1360 336 1296
FLAG 336 1296 n_diff
WIRE 336 1440 336 1504
FLAG 336 1504 n_dem_minus
SYMBOL res 576 1344 R0
SYMATTR InstName R_dfb
SYMATTR Value 10k
WIRE 592 1360 592 1296
FLAG 592 1296 n_demout
WIRE 592 1440 592 1504
FLAG 592 1504 n_dem_minus
SYMBOL opamp2 832 1344 R0
SYMATTR InstName XU_dem
SYMATTR Value uopamp_lvl2
SYMATTR Value2 Avol=10meg GBW=4.5meg Rin=100g Rout=10 Iq=600u Ilimit=50m Vrail=100m Vmax=40 Vos=5.000000e-06
WIRE 832 1376 768 1376
FLAG 768 1376 vplus
WIRE 832 1408 768 1408
FLAG 768 1408 n_dem_minus
WIRE 864 1344 864 1280
FLAG 864 1280 vcc
WIRE 864 1440 864 1504
FLAG 864 1504 vee
WIRE 928 1392 992 1392
FLAG 992 1392 n_demout
SYMBOL res 1088 1344 R0
SYMATTR InstName R_lp_log
SYMATTR Value 10k
WIRE 1104 1360 1104 1296
FLAG 1104 1296 n_demout
WIRE 1104 1440 1104 1504
FLAG 1104 1504 n_lp_dem
SYMBOL cap 1344 1344 R0
SYMATTR InstName C_lp_log
SYMATTR Value 7.957747e-08
WIRE 1360 1344 1360 1280
FLAG 1360 1280 n_lp_dem
WIRE 1360 1408 1360 1472
FLAG 1360 1472 0
SYMBOL res 1600 1344 R0
SYMATTR InstName R_gnd_log
SYMATTR Value 0.3448k
WIRE 1616 1360 1616 1296
FLAG 1616 1296 n_log_minus
WIRE 1616 1440 1616 1504
FLAG 1616 1504 0
SYMBOL res 1856 1344 R0
SYMATTR InstName R_fb_log
SYMATTR Value 10k
WIRE 1872 1360 1872 1296
FLAG 1872 1296 n_log_minus
WIRE 1872 1440 1872 1504
FLAG 1872 1504 n_log_dem
SYMBOL diode 64 1600 R0
SYMATTR InstName D_log_pos
SYMATTR Value BAT54
WIRE 80 1600 80 1536
FLAG 80 1536 n_log_dem
WIRE 80 1664 80 1728
FLAG 80 1728 0
SYMBOL diode 320 1600 R0
SYMATTR InstName D_log_neg
SYMATTR Value BAT54
WIRE 336 1600 336 1536
FLAG 336 1536 0
WIRE 336 1664 336 1728
FLAG 336 1728 n_log_dem
SYMBOL opamp2 576 1600 R0
SYMATTR InstName XU_log
SYMATTR Value uopamp_lvl2
SYMATTR Value2 Avol=10meg GBW=4.5meg Rin=100g Rout=10 Iq=600u Ilimit=50m Vrail=100m Vmax=40 Vos=5.000000e-06
WIRE 576 1632 512 1632
FLAG 512 1632 n_lp_dem
WIRE 576 1664 512 1664
FLAG 512 1664 n_log_minus
WIRE 608 1600 608 1536
FLAG 608 1536 vcc
WIRE 608 1696 608 1760
FLAG 608 1760 vee
WIRE 672 1648 736 1648
FLAG 736 1648 n_log_dem
SYMBOL res 832 1600 R0
SYMATTR InstName R_intin
SYMATTR Value 70000
WIRE 848 1616 848 1552
FLAG 848 1552 n_log_dem
WIRE 848 1696 848 1760
FLAG 848 1760 n_int_minus
SYMBOL cap 1088 1600 R0
SYMATTR InstName C_intin
SYMATTR Value 1.000000e-09
WIRE 1104 1600 1104 1536
FLAG 1104 1536 n_log_dem
WIRE 1104 1664 1104 1728
FLAG 1104 1728 n_int_minus
SYMBOL res 1344 1600 R0
SYMATTR InstName R_intfb
SYMATTR Value 700000
WIRE 1360 1616 1360 1552
FLAG 1360 1552 n_int_pidp
WIRE 1360 1696 1360 1760
FLAG 1360 1760 v_int_raw
SYMBOL cap 1600 1600 R0
SYMATTR InstName C_intfb
SYMATTR Value 3.183099e-07
WIRE 1616 1600 1616 1536
FLAG 1616 1536 n_int_minus
WIRE 1616 1664 1616 1728
FLAG 1616 1728 n_int_pidp
SYMBOL cap 1856 1600 R0
SYMATTR InstName C_hf
SYMATTR Value 1.000000e-09
WIRE 1872 1600 1872 1536
FLAG 1872 1536 n_int_pidp
WIRE 1872 1664 1872 1728
FLAG 1872 1728 v_int_raw
SYMBOL opamp2 64 1856 R0
SYMATTR InstName XU_int
SYMATTR Value uopamp_lvl2
SYMATTR Value2 Avol=10meg GBW=4.5meg Rin=100g Rout=10 Iq=600u Ilimit=50m Vrail=100m Vmax=40 Vos=5.000000e-06
WIRE 64 1888 0 1888
FLAG 0 1888 0
WIRE 64 1920 0 1920
FLAG 0 1920 n_int_minus
WIRE 96 1856 96 1792
FLAG 96 1792 vcc
WIRE 96 1952 96 2016
FLAG 96 2016 vee
WIRE 160 1904 224 1904
FLAG 224 1904 v_int_raw
SYMBOL voltage 320 1856 R0
SYMATTR InstName V_clamp_hi
SYMATTR Value 6
WIRE 336 1856 336 1792
FLAG 336 1792 v_clamp_hi
WIRE 336 1952 336 2016
FLAG 336 2016 0
SYMBOL voltage 576 1856 R0
SYMATTR InstName V_clamp_lo
SYMATTR Value -2.5
WIRE 592 1856 592 1792
FLAG 592 1792 v_clamp_lo
WIRE 592 1952 592 2016
FLAG 592 2016 0
SYMBOL res 832 1856 R0
SYMATTR InstName R_aw_out
SYMATTR Value 10
WIRE 848 1872 848 1808
FLAG 848 1808 v_int_raw
WIRE 848 1952 848 2016
FLAG 848 2016 v_int_out
SYMBOL diode 1088 1856 R0
SYMATTR InstName D_aw_hi
SYMATTR Value Dclamp
WIRE 1104 1856 1104 1792
FLAG 1104 1792 v_int_out
WIRE 1104 1920 1104 1984
FLAG 1104 1984 v_clamp_hi
SYMBOL diode 1344 1856 R0
SYMATTR InstName D_aw_lo
SYMATTR Value Dclamp
WIRE 1360 1856 1360 1792
FLAG 1360 1792 v_clamp_lo
WIRE 1360 1920 1360 1984
FLAG 1360 1984 v_int_out
SYMBOL res 1600 1856 R0
SYMATTR InstName R_diff1
SYMATTR Value 100k
WIRE 1616 1872 1616 1808
FLAG 1616 1808 v_int_out
WIRE 1616 1952 1616 2016
FLAG 1616 2016 n_aw_diff_minus
SYMBOL res 1856 1856 R0
SYMATTR InstName R_diff2
SYMATTR Value 100k
WIRE 1872 1872 1872 1808
FLAG 1872 1808 v_int_raw
WIRE 1872 1952 1872 2016
FLAG 1872 2016 n_aw_diff_plus
SYMBOL res 64 2112 R0
SYMATTR InstName R_diff3
SYMATTR Value 100k
WIRE 80 2128 80 2064
FLAG 80 2064 n_aw_diff_minus
WIRE 80 2208 80 2272
FLAG 80 2272 e_sat
SYMBOL res 320 2112 R0
SYMATTR InstName R_diff4
SYMATTR Value 100k
WIRE 336 2128 336 2064
FLAG 336 2064 n_aw_diff_plus
WIRE 336 2208 336 2272
FLAG 336 2272 0
SYMBOL opamp2 576 2112 R0
SYMATTR InstName XU_aw_diff
SYMATTR Value uopamp_lvl2
SYMATTR Value2 Avol=10meg GBW=4.5meg Rin=100g Rout=10 Iq=600u Ilimit=50m Vrail=100m Vmax=40 Vos=5.000000e-06
WIRE 576 2144 512 2144
FLAG 512 2144 n_aw_diff_plus
WIRE 576 2176 512 2176
FLAG 512 2176 n_aw_diff_minus
WIRE 608 2112 608 2048
FLAG 608 2048 vcc
WIRE 608 2208 608 2272
FLAG 608 2272 vee
WIRE 672 2160 736 2160
FLAG 736 2160 e_sat
SYMBOL res 832 2112 R0
SYMATTR InstName R_bc
SYMATTR Value 70000
WIRE 848 2128 848 2064
FLAG 848 2064 e_sat
WIRE 848 2208 848 2272
FLAG 848 2272 n_int_minus
SYMBOL voltage 1088 2112 R0
SYMATTR InstName V_bias_led
SYMATTR Value 1
WIRE 1104 2112 1104 2048
FLAG 1104 2048 v_bias_led
WIRE 1104 2208 1104 2272
FLAG 1104 2272 0
SYMBOL res 1344 2112 R0
SYMATTR InstName R_vi_a
SYMATTR Value 100k
WIRE 1360 2128 1360 2064
FLAG 1360 2064 v_int_out
WIRE 1360 2208 1360 2272
FLAG 1360 2272 n_vi_plus
SYMBOL res 1600 2112 R0
SYMATTR InstName R_vi_b
SYMATTR Value 100k
WIRE 1616 2128 1616 2064
FLAG 1616 2064 v_bias_led
WIRE 1616 2208 1616 2272
FLAG 1616 2272 n_vi_plus
SYMBOL res 1856 2112 R0
SYMATTR InstName R_vi_fb
SYMATTR Value 100k
WIRE 1872 2128 1872 2064
FLAG 1872 2064 n_led_emit
WIRE 1872 2208 1872 2272
FLAG 1872 2272 n_vi_minus
SYMBOL res 64 2368 R0
SYMATTR InstName R_vi_gnd
SYMATTR Value 100k
WIRE 80 2384 80 2320
FLAG 80 2320 n_vi_minus
WIRE 80 2464 80 2528
FLAG 80 2528 0
SYMBOL opamp2 320 2368 R0
SYMATTR InstName XU_vi
SYMATTR Value uopamp_lvl2
SYMATTR Value2 Avol=10meg GBW=4.5meg Rin=100g Rout=10 Iq=600u Ilimit=65m Vrail=100m Vmax=40 Vos=2.500000e-03
WIRE 320 2400 256 2400
FLAG 256 2400 n_vi_plus
WIRE 320 2432 256 2432
FLAG 256 2432 n_vi_minus
WIRE 352 2368 352 2304
FLAG 352 2304 vcc
WIRE 352 2464 352 2528
FLAG 352 2528 vee
WIRE 416 2416 480 2416
FLAG 480 2416 n_vi_out
SYMBOL res 576 2368 R0
SYMATTR InstName R_vi_base
SYMATTR Value 1k
WIRE 592 2384 592 2320
FLAG 592 2320 n_vi_out
WIRE 592 2464 592 2528
FLAG 592 2528 n_led_base
SYMBOL npn 832 2368 R0
SYMATTR InstName Q_led
SYMATTR Value Q2N3904
WIRE 896 2384 896 2320
FLAG 896 2320 n_led_cathode
WIRE 848 2432 784 2432
FLAG 784 2432 n_led_base
WIRE 896 2464 896 2528
FLAG 896 2528 n_led_emit
SYMBOL res 1088 2368 R0
SYMATTR InstName R_sense_led
SYMATTR Value 100
WIRE 1104 2384 1104 2320
FLAG 1104 2320 n_led_emit
WIRE 1104 2464 1104 2528
FLAG 1104 2528 0
SYMBOL res 1344 2368 R0
SYMATTR InstName R_atten_top
SYMATTR Value 56k
WIRE 1360 2384 1360 2320
FLAG 1360 2320 v_osc
WIRE 1360 2464 1360 2528
FLAG 1360 2528 v_atten_input
SYMBOL res 1600 2368 R0
SYMATTR InstName R_atten_bot
SYMATTR Value 9.1k
WIRE 1616 2384 1616 2320
FLAG 1616 2320 v_atten_input
WIRE 1616 2464 1616 2528
FLAG 1616 2528 0
SYMBOL opamp2 1856 2368 R0
SYMATTR InstName XU_buf0
SYMATTR Value uopamp_lvl2
SYMATTR Value2 Avol=10meg GBW=4.5meg Rin=100g Rout=10 Iq=600u Ilimit=65m Vrail=100m Vmax=40 Vos=2.500000e-03
WIRE 1856 2400 1792 2400
FLAG 1792 2400 v_atten_input
WIRE 1856 2432 1792 2432
FLAG 1792 2432 v_drv_atten
WIRE 1888 2368 1888 2304
FLAG 1888 2304 vcc
WIRE 1888 2464 1888 2528
FLAG 1888 2528 vee
WIRE 1952 2416 2016 2416
FLAG 2016 2416 v_drv_atten
SYMBOL opamp2 64 2624 R0
SYMATTR InstName XU_buf_osc
SYMATTR Value uopamp_lvl2
SYMATTR Value2 Avol=10meg GBW=4.5meg Rin=100g Rout=10 Iq=600u Ilimit=65m Vrail=100m Vmax=40 Vos=2.500000e-03
WIRE 64 2656 0 2656
FLAG 0 2656 n_buf_osc_sum
WIRE 64 2688 0 2688
FLAG 0 2688 0
WIRE 96 2624 96 2560
FLAG 96 2560 vcc
WIRE 96 2720 96 2784
FLAG 96 2784 vee
WIRE 160 2672 224 2672
FLAG 224 2672 n_buf_osc_out
SYMBOL res 320 2624 R0
SYMATTR InstName R_buf1_in
SYMATTR Value 1k
WIRE 336 2640 336 2576
FLAG 336 2576 v_drv_atten
WIRE 336 2720 336 2784
FLAG 336 2784 n_buf_osc_sum
SYMBOL res 576 2624 R0
SYMATTR InstName R_buf1_fb
SYMATTR Value 2500
WIRE 592 2640 592 2576
FLAG 592 2576 v_osc_drive
WIRE 592 2720 592 2784
FLAG 592 2784 n_buf_osc_sum
SYMBOL res 832 2624 R0
SYMATTR InstName R_obb_top
SYMATTR Value 200
WIRE 848 2640 848 2576
FLAG 848 2576 vcc_buf
WIRE 848 2720 848 2784
FLAG 848 2784 q_o_bp_top
SYMBOL diode 1088 2624 R0
SYMATTR InstName D_obb_top
SYMATTR Value Dbias
WIRE 1104 2624 1104 2560
FLAG 1104 2560 q_o_bp_top
WIRE 1104 2688 1104 2752
FLAG 1104 2752 n_buf_osc_out
SYMBOL diode 1344 2624 R0
SYMATTR InstName D_obb_bot
SYMATTR Value Dbias
WIRE 1360 2624 1360 2560
FLAG 1360 2560 n_buf_osc_out
WIRE 1360 2688 1360 2752
FLAG 1360 2752 q_o_bn_bot
SYMBOL res 1600 2624 R0
SYMATTR InstName R_obb_bot
SYMATTR Value 200
WIRE 1616 2640 1616 2576
FLAG 1616 2576 q_o_bn_bot
WIRE 1616 2720 1616 2784
FLAG 1616 2784 vee_buf
SYMBOL voltage 1856 2624 R0
SYMATTR InstName V_im_o_pmos
SYMATTR Value 0
WIRE 1872 2624 1872 2560
FLAG 1872 2560 vcc_buf
WIRE 1872 2720 1872 2784
FLAG 1872 2784 vcc_buf_o_pmos
SYMBOL res 64 2880 R0
SYMATTR InstName R_gd_o_pmos
SYMATTR Value 1k
WIRE 80 2896 80 2832
FLAG 80 2832 q_o_bp_top
WIRE 80 2976 80 3040
FLAG 80 3040 g_o_pmos
SYMBOL opamp2 320 2880 R0
SYMATTR InstName XM_o_pmos
SYMATTR Value uopamp_lvl2
WIRE 320 2912 256 2912
FLAG 256 2912 v_osc_drive
WIRE 320 2944 256 2944
FLAG 256 2944 g_o_pmos
WIRE 352 2880 352 2816
FLAG 352 2816 vcc_buf_o_pmos
WIRE 352 2976 352 3040
FLAG 352 3040 DMP3098L
SYMBOL voltage 576 2880 R0
SYMATTR InstName V_im_o_nmos
SYMATTR Value 0
WIRE 592 2880 592 2816
FLAG 592 2816 vee_buf_o_nmos
WIRE 592 2976 592 3040
FLAG 592 3040 vee_buf
SYMBOL res 832 2880 R0
SYMATTR InstName R_gd_o_nmos
SYMATTR Value 1k
WIRE 848 2896 848 2832
FLAG 848 2832 q_o_bn_bot
WIRE 848 2976 848 3040
FLAG 848 3040 g_o_nmos
SYMBOL opamp2 1088 2880 R0
SYMATTR InstName XM_o_nmos
SYMATTR Value uopamp_lvl2
WIRE 1088 2912 1024 2912
FLAG 1024 2912 v_osc_drive
WIRE 1088 2944 1024 2944
FLAG 1024 2944 g_o_nmos
WIRE 1120 2880 1120 2816
FLAG 1120 2816 vee_buf_o_nmos
WIRE 1120 2976 1120 3040
FLAG 1120 3040 DMN3404L
SYMBOL cap 1344 2880 R0
SYMATTR InstName C_buf2_dcblock
SYMATTR Value 10u
WIRE 1360 2880 1360 2816
FLAG 1360 2816 v_ap
WIRE 1360 2944 1360 3008
FLAG 1360 3008 n_buf2_ac
SYMBOL res 1600 2880 R0
SYMATTR InstName R_buf2_dcref
SYMATTR Value 100k
WIRE 1616 2896 1616 2832
FLAG 1616 2832 n_buf2_ac
WIRE 1616 2976 1616 3040
FLAG 1616 3040 0
SYMBOL opamp2 1856 2880 R0
SYMATTR InstName XU_buf_ap
SYMATTR Value uopamp_lvl2
SYMATTR Value2 Avol=10meg GBW=4.5meg Rin=100g Rout=10 Iq=600u Ilimit=65m Vrail=100m Vmax=40 Vos=2.500000e-03
WIRE 1856 2912 1792 2912
FLAG 1792 2912 n_buf_ap_sum
WIRE 1856 2944 1792 2944
FLAG 1792 2944 0
WIRE 1888 2880 1888 2816
FLAG 1888 2816 vcc
WIRE 1888 2976 1888 3040
FLAG 1888 3040 vee
WIRE 1952 2928 2016 2928
FLAG 2016 2928 n_buf_ap_out
SYMBOL res 64 3136 R0
SYMATTR InstName R_buf2_in
SYMATTR Value 1k
WIRE 80 3152 80 3088
FLAG 80 3088 n_buf2_ac
WIRE 80 3232 80 3296
FLAG 80 3296 n_buf_ap_sum
SYMBOL res 320 3136 R0
SYMATTR InstName R_buf2_fb
SYMATTR Value 2500
WIRE 336 3152 336 3088
FLAG 336 3088 v_ap_drive
WIRE 336 3232 336 3296
FLAG 336 3296 n_buf_ap_sum
SYMBOL res 576 3136 R0
SYMATTR InstName R_abb_top
SYMATTR Value 200
WIRE 592 3152 592 3088
FLAG 592 3088 vcc_buf
WIRE 592 3232 592 3296
FLAG 592 3296 q_a_bp_top
SYMBOL diode 832 3136 R0
SYMATTR InstName D_abb_top
SYMATTR Value Dbias
WIRE 848 3136 848 3072
FLAG 848 3072 q_a_bp_top
WIRE 848 3200 848 3264
FLAG 848 3264 n_buf_ap_out
SYMBOL diode 1088 3136 R0
SYMATTR InstName D_abb_bot
SYMATTR Value Dbias
WIRE 1104 3136 1104 3072
FLAG 1104 3072 n_buf_ap_out
WIRE 1104 3200 1104 3264
FLAG 1104 3264 q_a_bn_bot
SYMBOL res 1344 3136 R0
SYMATTR InstName R_abb_bot
SYMATTR Value 200
WIRE 1360 3152 1360 3088
FLAG 1360 3088 q_a_bn_bot
WIRE 1360 3232 1360 3296
FLAG 1360 3296 vee_buf
SYMBOL voltage 1600 3136 R0
SYMATTR InstName V_im_a_pmos
SYMATTR Value 0
WIRE 1616 3136 1616 3072
FLAG 1616 3072 vcc_buf
WIRE 1616 3232 1616 3296
FLAG 1616 3296 vcc_buf_a_pmos
SYMBOL res 1856 3136 R0
SYMATTR InstName R_gd_a_pmos
SYMATTR Value 1k
WIRE 1872 3152 1872 3088
FLAG 1872 3088 q_a_bp_top
WIRE 1872 3232 1872 3296
FLAG 1872 3296 g_a_pmos
SYMBOL opamp2 64 3392 R0
SYMATTR InstName XM_a_pmos
SYMATTR Value uopamp_lvl2
WIRE 64 3424 0 3424
FLAG 0 3424 v_ap_drive
WIRE 64 3456 0 3456
FLAG 0 3456 g_a_pmos
WIRE 96 3392 96 3328
FLAG 96 3328 vcc_buf_a_pmos
WIRE 96 3488 96 3552
FLAG 96 3552 DMP3098L
SYMBOL voltage 320 3392 R0
SYMATTR InstName V_im_a_nmos
SYMATTR Value 0
WIRE 336 3392 336 3328
FLAG 336 3328 vee_buf_a_nmos
WIRE 336 3488 336 3552
FLAG 336 3552 vee_buf
SYMBOL res 576 3392 R0
SYMATTR InstName R_gd_a_nmos
SYMATTR Value 1k
WIRE 592 3408 592 3344
FLAG 592 3344 q_a_bn_bot
WIRE 592 3488 592 3552
FLAG 592 3552 g_a_nmos
SYMBOL opamp2 832 3392 R0
SYMATTR InstName XM_a_nmos
SYMATTR Value uopamp_lvl2
WIRE 832 3424 768 3424
FLAG 768 3424 v_ap_drive
WIRE 832 3456 768 3456
FLAG 768 3456 g_a_nmos
WIRE 864 3392 864 3328
FLAG 864 3328 vee_buf_a_nmos
WIRE 864 3488 864 3552
FLAG 864 3552 DMN3404L
TEXT 64 3840 Left 2 !.include /home/lewisbrown/claude-code/smps-design-tools/ngspice_examples/uopamp.lib\n.param T_amb=300.0\n.param R_amb=2.46563\n.param sigma_eps_A=4.483188e-13\n.param C_th=9.181569e-05\n.param fil_exp=1.2000\n.include /home/lewisbrown/claude-code/smps-design-tools/ngspice_examples/spice_models/H11F1.spice.txt\n.subckt filament v_top v_bot T_node r_fil\n.ends filament\n.model swMod SW(VT=0 VH=0.1 RON=10 ROFF=1G)\n.model Dclamp D(Is=10n N=1.0 RS=0.1 BV=40 IBV=0.1m CJO=10p)\n; UNKNOWN: E_v_ctl_alias v_ctl 0 n_led_emit 0 1\n.model Dbias  D(IS=2.52n N=1.752 RS=0.568 BV=80 IBV=0.1m CJO=4p)\n.model Dschottky D(IS=10n N=1.0 RS=0.1 BV=20 IBV=0.1m CJO=10p)\n.model QBC337 NPN(IS=1e-14 BF=300 BR=10 RB=10 RC=0.5 RE=0.1 IKF=0.8 CJC=11p CJE=20p VAF=100)\n.model QBC327 PNP(IS=1e-14 BF=300 BR=10 RB=10 RC=0.5 RE=0.1 IKF=0.8 CJC=11p CJE=20p VAF=100)\n.include /home/lewisbrown/claude-code/smps-design-tools/ngspice_examples/spice_models/DMP3098L.spice.txt\n.include /home/lewisbrown/claude-code/smps-design-tools/ngspice_examples/spice_models/DMN3404L.spice.txt\n.model Q2N3904 NPN(IS=6.734f XTI=3 EG=1.11 VAF=74.03 BF=416.4 NE=1.259 ISE=6.734f IKF=66.78m XTB=1.5 BR=.7371 NC=2 ISC=0 IKR=0 RC=1 CJC=3.638p MJC=.3085 VJC=.75 FC=.5 CJE=4.493p MJE=.2593 VJE=.75 TR=239.5n TF=301.2p ITF=.4 VTF=4 XTF=2 RB=10)\n.model Q2N3906 PNP(IS=1.41f XTI=3 EG=1.11 VAF=18.7 BF=180.7 NE=1.5 ISE=0 IKF=80m XTB=1.5 BR=4.977 NC=2 ISC=0 IKR=0 RC=2.5 CJC=9.728p MJC=.5776 VJC=.75 FC=.5 CJE=8.063p MJE=.3677 VJE=.75 TR=33.42n TF=179.3p ITF=.4 VTF=4 XTF=6 RB=10)\n.model BAT54 D(IS=4e-8 N=1.0 RS=2 BV=30 IBV=10u CJO=10p VJ=0.4 M=0.4 EG=0.69 XTI=2.0 TT=10n)\n.options reltol=1e-4 abstol=1p chgtol=1f\n.save v(v_osc_drive) v(v_ap_drive) v(node_A) v(node_B) v(n_diff) v(n_demout) v(v_ctl) v(v_int_out) v(T_node) v(r_fil) v(v_int_raw) v(e_sat)\n.tran 10u 5.0 UIC\n.control\n* run\n* wrdata /home/lewisbrown/claude-code/smps-design-tools/ngspice_examples/_unused.data v(v_osc_drive) v(v_ap_drive) v(node_A) v(node_B) v(n_diff) v(n_demout) v(v_ctl) v(v_int_out) v(T_node) v(r_fil) v(v_int_raw) v(e_sat)\n.endcontrol\n.end
