Version 4
SHEET 1 8000 8000
TEXT 64 16 Left 4 ;VFD-filament regulator for IV-3 (tube=iv3)
SYMBOL voltage 64 64 R0
SYMATTR InstName Vcc
SYMATTR Value 9.0
WIRE 80 64 80 0
FLAG 80 0 vcc
WIRE 80 160 80 224
FLAG 80 224 0
SYMBOL voltage 320 64 R0
SYMATTR InstName Vee
SYMATTR Value -9.0
WIRE 336 64 336 0
FLAG 336 0 vee
WIRE 336 160 336 224
FLAG 336 224 0
SYMBOL res 576 64 R0
SYMATTR InstName R1
SYMATTR Value 10000
WIRE 592 80 592 16
FLAG 592 16 v_osc
WIRE 592 160 592 224
FLAG 592 224 ns
SYMBOL cap 832 64 R0
SYMATTR InstName C1
SYMATTR Value 1.591500e-08
WIRE 848 64 848 0
FLAG 848 0 ns
WIRE 848 128 848 192
FLAG 848 192 np
SYMBOL res 1088 64 R0
SYMATTR InstName R2
SYMATTR Value 10000
WIRE 1104 80 1104 16
FLAG 1104 16 np
WIRE 1104 160 1104 224
FLAG 1104 224 0
SYMBOL cap 1344 64 R0
SYMATTR InstName C2
SYMATTR Value 1.591500e-08
WIRE 1360 64 1360 0
FLAG 1360 0 np
WIRE 1360 128 1360 192
FLAG 1360 192 0
SYMBOL res 1600 64 R0
SYMATTR InstName Rg
SYMATTR Value 10k
WIRE 1616 80 1616 16
FLAG 1616 16 nn
WIRE 1616 160 1616 224
FLAG 1616 224 0
SYMBOL res 1856 64 R0
SYMATTR InstName Rfa
SYMATTR Value 10k
WIRE 1872 80 1872 16
FLAG 1872 16 nn
WIRE 1872 160 1872 224
FLAG 1872 224 fb
SYMBOL res 64 320 R0
SYMATTR InstName Rfb
SYMATTR Value 12k
WIRE 80 336 80 272
FLAG 80 272 fb
WIRE 80 416 80 480
FLAG 80 480 v_osc
SYMBOL npn 320 320 R0
SYMATTR InstName Q1
SYMATTR Value Q2N3904
WIRE 384 336 384 272
FLAG 384 272 fb
WIRE 336 384 272 384
FLAG 272 384 b1
WIRE 384 416 384 480
FLAG 384 480 v_osc
SYMBOL npn 576 320 R0
SYMATTR InstName Q2
SYMATTR Value Q2N3904
WIRE 640 336 640 272
FLAG 640 272 v_osc
WIRE 592 384 528 384
FLAG 528 384 b2
WIRE 640 416 640 480
FLAG 640 480 fb
SYMBOL res 832 320 R0
SYMATTR InstName Rtop1
SYMATTR Value 120000
WIRE 848 336 848 272
FLAG 848 272 fb
WIRE 848 416 848 480
FLAG 848 480 b1
SYMBOL res 1088 320 R0
SYMATTR InstName Rbot1
SYMATTR Value 120000
WIRE 1104 336 1104 272
FLAG 1104 272 b1
WIRE 1104 416 1104 480
FLAG 1104 480 v_osc
SYMBOL res 1344 320 R0
SYMATTR InstName Rtop2
SYMATTR Value 120000
WIRE 1360 336 1360 272
FLAG 1360 272 v_osc
WIRE 1360 416 1360 480
FLAG 1360 480 b2
SYMBOL res 1600 320 R0
SYMATTR InstName Rbot2
SYMATTR Value 120000
WIRE 1616 336 1616 272
FLAG 1616 272 b2
WIRE 1616 416 1616 480
FLAG 1616 480 fb
SYMBOL opamp2 1856 320 R0
SYMATTR InstName XU_osc
SYMATTR Value uopamp_lvl2
SYMATTR Value2 Avol=10meg GBW=4.5meg Rin=100g Rout=10 Iq=600u Ilimit=1 Vrail=100m Vmax=40 Vos=2.500000e-03
WIRE 1856 352 1792 352
FLAG 1792 352 np
WIRE 1856 384 1792 384
FLAG 1792 384 nn
WIRE 1888 320 1888 256
FLAG 1888 256 vcc
WIRE 1888 416 1888 480
FLAG 1888 480 vee
WIRE 1952 368 2016 368
FLAG 2016 368 v_osc
SYMBOL res 64 576 R0
SYMATTR InstName R_ap1
SYMATTR Value 1590
WIRE 80 592 80 528
FLAG 80 528 v_osc
WIRE 80 672 80 736
FLAG 80 736 n_ap_minus
SYMBOL res 320 576 R0
SYMATTR InstName R_ap2
SYMATTR Value 1590
WIRE 336 592 336 528
FLAG 336 528 v_ap
WIRE 336 672 336 736
FLAG 336 736 n_ap_minus
SYMBOL njf 576 576 R0
SYMATTR InstName J_var
SYMATTR Value J201
WIRE 608 576 608 512
FLAG 608 512 v_osc
WIRE 576 640 512 640
FLAG 512 640 v_ctl
WIRE 608 672 608 736
FLAG 608 736 n_ap_plus
SYMBOL cap 832 576 R0
SYMATTR InstName C_ap
SYMATTR Value 1.000000e-07
WIRE 848 576 848 512
FLAG 848 512 n_ap_plus
WIRE 848 640 848 704
FLAG 848 704 0
SYMBOL opamp2 1088 576 R0
SYMATTR InstName XU_ap
SYMATTR Value uopamp_lvl2
SYMATTR Value2 Avol=10meg GBW=4.5meg Rin=100g Rout=10 Iq=600u Ilimit=1 Vrail=100m Vmax=40 Vos=2.500000e-03
WIRE 1088 608 1024 608
FLAG 1024 608 n_ap_plus
WIRE 1088 640 1024 640
FLAG 1024 640 n_ap_minus
WIRE 1120 576 1120 512
FLAG 1120 512 vcc
WIRE 1120 672 1120 736
FLAG 1120 736 vee
WIRE 1184 624 1248 624
FLAG 1248 624 v_ap
SYMBOL bi 1344 576 R0
SYMATTR InstName B_fil
SYMATTR Value I = (V(v_osc) - V(node_A)) / (R_amb * (V(T_node)/T_amb)^fil_exp)
WIRE 1360 576 1360 512
FLAG 1360 512 v_osc
WIRE 1360 656 1360 720
FLAG 1360 720 node_A
SYMBOL res 1600 576 R0
SYMATTR InstName R_sen
SYMATTR Value 10
WIRE 1616 592 1616 528
FLAG 1616 528 node_A
WIRE 1616 672 1616 736
FLAG 1616 736 v_ap
SYMBOL res 1856 576 R0
SYMATTR InstName R_top_ref
SYMATTR Value 990
WIRE 1872 592 1872 528
FLAG 1872 528 v_osc
WIRE 1872 672 1872 736
FLAG 1872 736 node_B
SYMBOL res 64 832 R0
SYMATTR InstName R_bot_ref
SYMATTR Value 100
WIRE 80 848 80 784
FLAG 80 784 node_B
WIRE 80 928 80 992
FLAG 80 992 v_ap
SYMBOL bi 320 832 R0
SYMATTR InstName B_pelec
SYMATTR Value I = (V(v_osc)-V(node_A))*(V(v_osc)-V(node_A)) / (R_amb * (V(T_node)/T_amb)^fil_exp)
WIRE 336 832 336 768
FLAG 336 768 0
WIRE 336 912 336 976
FLAG 336 976 T_node
SYMBOL bi 576 832 R0
SYMATTR InstName B_prad
SYMATTR Value I = sigma_eps_A * (V(T_node)^4 - T_amb^4)
WIRE 592 832 592 768
FLAG 592 768 T_node
WIRE 592 912 592 976
FLAG 592 976 0
SYMBOL cap 832 832 R0
SYMATTR InstName C_th
SYMATTR Value {C_th}
WIRE 848 832 848 768
FLAG 848 768 T_node
WIRE 848 896 848 960
FLAG 848 960 0
SYMBOL bv 1088 832 R0
SYMATTR InstName B_R
SYMATTR Value V = R_amb * (V(T_node)/T_amb)^fil_exp
WIRE 1104 832 1104 768
FLAG 1104 768 r_fil
WIRE 1104 912 1104 976
FLAG 1104 976 0
SYMBOL res 1344 832 R0
SYMATTR InstName R_a1
SYMATTR Value 1e+06
WIRE 1360 848 1360 784
FLAG 1360 784 node_A
WIRE 1360 928 1360 992
FLAG 1360 992 n_diff_minus
SYMBOL res 1600 832 R0
SYMATTR InstName R_a2
SYMATTR Value 1e+06
WIRE 1616 848 1616 784
FLAG 1616 784 n_diff_minus
WIRE 1616 928 1616 992
FLAG 1616 992 n_diff
SYMBOL res 1856 832 R0
SYMATTR InstName R_b1
SYMATTR Value 1e+06
WIRE 1872 848 1872 784
FLAG 1872 784 node_B
WIRE 1872 928 1872 992
FLAG 1872 992 n_diff_plus
SYMBOL res 64 1088 R0
SYMATTR InstName R_b2
SYMATTR Value 1e+06
WIRE 80 1104 80 1040
FLAG 80 1040 n_diff_plus
WIRE 80 1184 80 1248
FLAG 80 1248 0
SYMBOL opamp2 320 1088 R0
SYMATTR InstName XU_diff
SYMATTR Value uopamp_lvl2
SYMATTR Value2 Avol=10meg GBW=4.5meg Rin=100g Rout=10 Iq=600u Ilimit=1 Vrail=100m Vmax=40 Vos=2.500000e-03
WIRE 320 1120 256 1120
FLAG 256 1120 n_diff_plus
WIRE 320 1152 256 1152
FLAG 256 1152 n_diff_minus
WIRE 352 1088 352 1024
FLAG 352 1024 vcc
WIRE 352 1184 352 1248
FLAG 352 1248 vee
WIRE 416 1136 480 1136
FLAG 480 1136 n_diff
SYMBOL bv 576 1088 R0
SYMATTR InstName B_cmp
SYMATTR Value V = 5 * tanh(V(v_osc) * 1000)
WIRE 592 1088 592 1024
FLAG 592 1024 n_cmp
WIRE 592 1168 592 1232
FLAG 592 1232 0
SYMBOL sw 832 1088 R0
SYMATTR InstName S1
SYMATTR Value swMod
WIRE 800 1072 800 1008
FLAG 800 1008 n_diff
WIRE 864 1072 864 1008
FLAG 864 1008 vplus
WIRE 800 1104 800 1168
FLAG 800 1168 n_cmp
WIRE 864 1104 864 1168
FLAG 864 1168 0
SYMBOL sw 1088 1088 R0
SYMATTR InstName S2
SYMATTR Value swMod
WIRE 1056 1072 1056 1008
FLAG 1056 1008 0
WIRE 1120 1072 1120 1008
FLAG 1120 1008 vplus
WIRE 1056 1104 1056 1168
FLAG 1056 1168 0
WIRE 1120 1104 1120 1168
FLAG 1120 1168 n_cmp
SYMBOL res 1344 1088 R0
SYMATTR InstName R_bias
SYMATTR Value 1Meg
WIRE 1360 1104 1360 1040
FLAG 1360 1040 vplus
WIRE 1360 1184 1360 1248
FLAG 1360 1248 0
SYMBOL res 1600 1088 R0
SYMATTR InstName R_din
SYMATTR Value 10k
WIRE 1616 1104 1616 1040
FLAG 1616 1040 n_diff
WIRE 1616 1184 1616 1248
FLAG 1616 1248 n_dem_minus
SYMBOL res 1856 1088 R0
SYMATTR InstName R_dfb
SYMATTR Value 10k
WIRE 1872 1104 1872 1040
FLAG 1872 1040 n_demout
WIRE 1872 1184 1872 1248
FLAG 1872 1248 n_dem_minus
SYMBOL opamp2 64 1344 R0
SYMATTR InstName XU_dem
SYMATTR Value uopamp_lvl2
SYMATTR Value2 Avol=10meg GBW=4.5meg Rin=100g Rout=10 Iq=600u Ilimit=1 Vrail=100m Vmax=40 Vos=2.500000e-03
WIRE 64 1376 0 1376
FLAG 0 1376 vplus
WIRE 64 1408 0 1408
FLAG 0 1408 n_dem_minus
WIRE 96 1344 96 1280
FLAG 96 1280 vcc
WIRE 96 1440 96 1504
FLAG 96 1504 vee
WIRE 160 1392 224 1392
FLAG 224 1392 n_demout
SYMBOL res 320 1344 R0
SYMATTR InstName R_intin
SYMATTR Value 30000
WIRE 336 1360 336 1296
FLAG 336 1296 n_demout
WIRE 336 1440 336 1504
FLAG 336 1504 n_int_minus
SYMBOL cap 576 1344 R0
SYMATTR InstName C_intin
SYMATTR Value 1.000000e-09
WIRE 592 1344 592 1280
FLAG 592 1280 n_demout
WIRE 592 1408 592 1472
FLAG 592 1472 n_int_minus
SYMBOL res 832 1344 R0
SYMATTR InstName R_intfb
SYMATTR Value 300000
WIRE 848 1360 848 1296
FLAG 848 1296 n_int_pidp
WIRE 848 1440 848 1504
FLAG 848 1504 v_int_out
SYMBOL cap 1088 1344 R0
SYMATTR InstName C_intfb
SYMATTR Value 3.183099e-07
WIRE 1104 1344 1104 1280
FLAG 1104 1280 n_int_minus
WIRE 1104 1408 1104 1472
FLAG 1104 1472 n_int_pidp
SYMBOL cap 1344 1344 R0
SYMATTR InstName C_hf
SYMATTR Value 1.000000e-08
WIRE 1360 1344 1360 1280
FLAG 1360 1280 n_int_pidp
WIRE 1360 1408 1360 1472
FLAG 1360 1472 v_int_out
SYMBOL opamp2 1600 1344 R0
SYMATTR InstName XU_int
SYMATTR Value uopamp_lvl2
SYMATTR Value2 Avol=10meg GBW=4.5meg Rin=100g Rout=10 Iq=600u Ilimit=1 Vrail=100m Vmax=40 Vos=2.500000e-03
WIRE 1600 1376 1536 1376
FLAG 1536 1376 0
WIRE 1600 1408 1536 1408
FLAG 1536 1408 n_int_minus
WIRE 1632 1344 1632 1280
FLAG 1632 1280 vcc
WIRE 1632 1440 1632 1504
FLAG 1632 1504 vee
WIRE 1696 1392 1760 1392
FLAG 1760 1392 v_int_out
SYMBOL bi 1856 1344 R0
SYMATTR InstName B_aw
SYMATTR Value I = (V(v_int_out) > 1.0) * (V(v_int_out) - 1.0) * 1e3 + (V(v_int_out) < -0.4) * (V(v_int_out) + 0.4) * 1e3
WIRE 1872 1344 1872 1280
FLAG 1872 1280 v_int_out
WIRE 1872 1424 1872 1488
FLAG 1872 1488 0
SYMBOL bv 64 1600 R0
SYMATTR InstName B_ctl
SYMATTR Value V = max(-1.0, min(0.4, -V(v_int_out)))
WIRE 80 1600 80 1536
FLAG 80 1536 v_ctl
WIRE 80 1680 80 1744
FLAG 80 1744 0
SYMBOL voltage 320 1600 R0
SYMATTR InstName V_preset_src
SYMATTR Value 0.5500
WIRE 336 1600 336 1536
FLAG 336 1536 v_preset_node
WIRE 336 1696 336 1760
FLAG 336 1760 0
SYMBOL voltage 576 1600 R0
SYMATTR InstName V_ss
SYMATTR Value PWL(0 1 9.999900e-02 1 1.000000e-01 0 1 0)
WIRE 592 1600 592 1536
FLAG 592 1536 vss
WIRE 592 1696 592 1760
FLAG 592 1760 0
SYMBOL sw 832 1600 R0
SYMATTR InstName S_ss
SYMATTR Value swSS
WIRE 800 1584 800 1520
FLAG 800 1520 v_int_out
WIRE 864 1584 864 1520
FLAG 864 1520 v_preset_node
WIRE 800 1616 800 1680
FLAG 800 1680 vss
WIRE 864 1616 864 1680
FLAG 864 1680 0
TEXT 64 2048 Left 2 !.include /home/user/smps-design-tools/ngspice_examples/uopamp.lib\n.param T_amb=300.0\n.param R_amb=30.8203\n.param sigma_eps_A=2.490660e-14\n.param C_th=5.100872e-06\n.param fil_exp=1.2000\n.model J201 NJF(Vto=-1.5000 Beta=1.0000e-03 Lambda=0)\n.model swMod SW(VT=0 VH=0.1 RON=10 ROFF=1G)\n.model swSS SW(VT=0.5 VH=0 RON=0.01 ROFF=1G)\n.model Q2N3904 NPN(IS=6.734f XTI=3 EG=1.11 VAF=74.03 BF=416.4 NE=1.259 ISE=6.734f IKF=66.78m XTB=1.5 BR=.7371 NC=2 ISC=0 IKR=0 RC=1 CJC=3.638p MJC=.3085 VJC=.75 FC=.5 CJE=4.493p MJE=.2593 VJE=.75 TR=239.5n TF=301.2p ITF=.4 VTF=4 XTF=2 RB=10)\n.options reltol=1e-6 abstol=1p chgtol=1f\n.tran 10u 5.0 UIC\n.control\n* run\n* wrdata /home/user/smps-design-tools/ngspice_examples/_unused.data v(v_osc) v(v_ap) v(node_A) v(node_B) v(n_diff) v(n_demout) v(v_ctl) v(v_int_out) v(T_node) v(r_fil)\n.endcontrol\n.end
