Version 4
SHEET 1 8000 8000
TEXT 64 16 Left 4 ;VFD-filament regulator for ILC1-1/8 (tube=ilc11_8)
SYMBOL voltage 64 64 R0
SYMATTR InstName Vcc
SYMATTR Value 9.0
WIRE 80 64 80 0
FLAG 80 0 vcc
WIRE 80 160 80 224
FLAG 80 224 0
SYMBOL voltage 320 64 R0
SYMATTR InstName Vee
SYMATTR Value -9.0
WIRE 336 64 336 0
FLAG 336 0 vee
WIRE 336 160 336 224
FLAG 336 224 0
SYMBOL voltage 576 64 R0
SYMATTR InstName Vcc_buf
SYMATTR Value 1.4
WIRE 592 64 592 0
FLAG 592 0 vcc_buf
WIRE 592 160 592 224
FLAG 592 224 0
SYMBOL voltage 832 64 R0
SYMATTR InstName Vee_buf
SYMATTR Value -1.4
WIRE 848 64 848 0
FLAG 848 0 vee_buf
WIRE 848 160 848 224
FLAG 848 224 0
SYMBOL res 1088 64 R0
SYMATTR InstName R1
SYMATTR Value 10000
WIRE 1104 80 1104 16
FLAG 1104 16 v_osc
WIRE 1104 160 1104 224
FLAG 1104 224 ns
SYMBOL cap 1344 64 R0
SYMATTR InstName C1
SYMATTR Value 1.591500e-08
WIRE 1360 64 1360 0
FLAG 1360 0 ns
WIRE 1360 128 1360 192
FLAG 1360 192 np
SYMBOL res 1600 64 R0
SYMATTR InstName R2
SYMATTR Value 10000
WIRE 1616 80 1616 16
FLAG 1616 16 np
WIRE 1616 160 1616 224
FLAG 1616 224 0
SYMBOL cap 1856 64 R0
SYMATTR InstName C2
SYMATTR Value 1.591500e-08
WIRE 1872 64 1872 0
FLAG 1872 0 np
WIRE 1872 128 1872 192
FLAG 1872 192 0
SYMBOL res 64 320 R0
SYMATTR InstName Rg
SYMATTR Value 10k
WIRE 80 336 80 272
FLAG 80 272 nn
WIRE 80 416 80 480
FLAG 80 480 0
SYMBOL res 320 320 R0
SYMATTR InstName Rfa
SYMATTR Value 10k
WIRE 336 336 336 272
FLAG 336 272 nn
WIRE 336 416 336 480
FLAG 336 480 fb
SYMBOL res 576 320 R0
SYMATTR InstName Rfb
SYMATTR Value 12k
WIRE 592 336 592 272
FLAG 592 272 fb
WIRE 592 416 592 480
FLAG 592 480 v_osc
SYMBOL npn 832 320 R0
SYMATTR InstName Q1
SYMATTR Value Q2N3904
WIRE 896 336 896 272
FLAG 896 272 fb
WIRE 848 384 784 384
FLAG 784 384 b1
WIRE 896 416 896 480
FLAG 896 480 v_osc
SYMBOL npn 1088 320 R0
SYMATTR InstName Q2
SYMATTR Value Q2N3904
WIRE 1152 336 1152 272
FLAG 1152 272 v_osc
WIRE 1104 384 1040 384
FLAG 1040 384 b2
WIRE 1152 416 1152 480
FLAG 1152 480 fb
SYMBOL res 1344 320 R0
SYMATTR InstName Rtop1
SYMATTR Value 120000
WIRE 1360 336 1360 272
FLAG 1360 272 fb
WIRE 1360 416 1360 480
FLAG 1360 480 b1
SYMBOL res 1600 320 R0
SYMATTR InstName Rbot1
SYMATTR Value 120000
WIRE 1616 336 1616 272
FLAG 1616 272 b1
WIRE 1616 416 1616 480
FLAG 1616 480 v_osc
SYMBOL res 1856 320 R0
SYMATTR InstName Rtop2
SYMATTR Value 120000
WIRE 1872 336 1872 272
FLAG 1872 272 v_osc
WIRE 1872 416 1872 480
FLAG 1872 480 b2
SYMBOL res 64 576 R0
SYMATTR InstName Rbot2
SYMATTR Value 120000
WIRE 80 592 80 528
FLAG 80 528 b2
WIRE 80 672 80 736
FLAG 80 736 fb
SYMBOL opamp2 320 576 R0
SYMATTR InstName XU_osc
SYMATTR Value uopamp_lvl2
SYMATTR Value2 Avol=10meg GBW=4.5meg Rin=100g Rout=10 Iq=600u Ilimit=65m Vrail=100m Vmax=40 Vos=2.500000e-03
WIRE 320 608 256 608
FLAG 256 608 np
WIRE 320 640 256 640
FLAG 256 640 nn
WIRE 352 576 352 512
FLAG 352 512 vcc
WIRE 352 672 352 736
FLAG 352 736 vee
WIRE 416 624 480 624
FLAG 480 624 v_osc
SYMBOL res 576 576 R0
SYMATTR InstName R_ap1
SYMATTR Value 1590
WIRE 592 592 592 528
FLAG 592 528 v_drv_atten
WIRE 592 672 592 736
FLAG 592 736 n_ap_minus
SYMBOL res 832 576 R0
SYMATTR InstName R_ap2
SYMATTR Value 1590
WIRE 848 592 848 528
FLAG 848 528 v_ap
WIRE 848 672 848 736
FLAG 848 736 n_ap_minus
SYMBOL opamp2 1088 576 R0
SYMATTR InstName XM_var1
SYMATTR Value uopamp_lvl2
WIRE 1088 608 1024 608
FLAG 1024 608 v_drv_atten
WIRE 1088 640 1024 640
FLAG 1024 640 v_ctl
WIRE 1120 576 1120 512
FLAG 1120 512 n_var_mid
WIRE 1120 672 1120 736
FLAG 1120 736 DMN3404L
SYMBOL opamp2 1344 576 R0
SYMATTR InstName XM_var2
SYMATTR Value uopamp_lvl2
WIRE 1344 608 1280 608
FLAG 1280 608 n_ap_plus
WIRE 1344 640 1280 640
FLAG 1280 640 v_ctl
WIRE 1376 576 1376 512
FLAG 1376 512 n_var_mid
WIRE 1376 672 1376 736
FLAG 1376 736 DMN3404L
SYMBOL res 1600 576 R0
SYMATTR InstName R_var_mid_bias
SYMATTR Value 1Meg
WIRE 1616 592 1616 528
FLAG 1616 528 n_var_mid
WIRE 1616 672 1616 736
FLAG 1616 736 0
SYMBOL cap 1856 576 R0
SYMATTR InstName C_ap
SYMATTR Value 1.000000e-06
WIRE 1872 576 1872 512
FLAG 1872 512 n_ap_plus
WIRE 1872 640 1872 704
FLAG 1872 704 0
SYMBOL opamp2 64 832 R0
SYMATTR InstName XU_ap
SYMATTR Value uopamp_lvl2
SYMATTR Value2 Avol=10meg GBW=4.5meg Rin=100g Rout=10 Iq=600u Ilimit=65m Vrail=100m Vmax=40 Vos=2.500000e-03
WIRE 64 864 0 864
FLAG 0 864 n_ap_plus
WIRE 64 896 0 896
FLAG 0 896 n_ap_minus
WIRE 96 832 96 768
FLAG 96 768 vcc
WIRE 96 928 96 992
FLAG 96 992 vee
WIRE 160 880 224 880
FLAG 224 880 v_ap
SYMBOL bi 320 832 R0
SYMATTR InstName B_fil
SYMATTR Value I = (V(v_top) - V(v_bot)) / (R_amb * (max(V(T_node),T_amb)/T_amb)^fil_exp)
WIRE 336 832 336 768
FLAG 336 768 v_top
WIRE 336 912 336 976
FLAG 336 976 v_bot
SYMBOL bi 576 832 R0
SYMATTR InstName B_pelec
SYMATTR Value I = (V(v_top)-V(v_bot))*(V(v_top)-V(v_bot)) / (R_amb * (max(V(T_node),T_amb)/T_amb)^fil_exp)
WIRE 592 832 592 768
FLAG 592 768 0
WIRE 592 912 592 976
FLAG 592 976 T_node
SYMBOL bi 832 832 R0
SYMATTR InstName B_prad
SYMATTR Value I = sigma_eps_A * (max(V(T_node),T_amb)^4 - T_amb^4)
WIRE 848 832 848 768
FLAG 848 768 T_node
WIRE 848 912 848 976
FLAG 848 976 0
SYMBOL cap 1088 832 R0
SYMATTR InstName C_th
SYMATTR Value {C_th}
WIRE 1104 832 1104 768
FLAG 1104 768 T_node
WIRE 1104 896 1104 960
FLAG 1104 960 0
SYMBOL bv 1344 832 R0
SYMATTR InstName B_R
SYMATTR Value V = R_amb * (max(V(T_node),T_amb)/T_amb)^fil_exp
WIRE 1360 832 1360 768
FLAG 1360 768 r_fil
WIRE 1360 912 1360 976
FLAG 1360 976 0
SYMBOL opamp2 1600 832 R0
SYMATTR InstName X_filament
SYMATTR Value uopamp_lvl2
WIRE 1600 864 1536 864
FLAG 1536 864 v_osc_drive
WIRE 1600 896 1536 896
FLAG 1536 896 node_A
WIRE 1632 832 1632 768
FLAG 1632 768 T_node
WIRE 1632 928 1632 992
FLAG 1632 992 r_fil
WIRE 1696 880 1760 880
FLAG 1760 880 filament
SYMBOL res 1856 832 R0
SYMATTR InstName R_sen
SYMATTR Value 2
WIRE 1872 848 1872 784
FLAG 1872 784 node_A
WIRE 1872 928 1872 992
FLAG 1872 992 v_ap_drive
SYMBOL res 64 1088 R0
SYMATTR InstName R_top_ref
SYMATTR Value 800
WIRE 80 1104 80 1040
FLAG 80 1040 v_osc_drive
WIRE 80 1184 80 1248
FLAG 80 1248 node_B
SYMBOL res 320 1088 R0
SYMATTR InstName R_bot_ref
SYMATTR Value 200
WIRE 336 1104 336 1040
FLAG 336 1040 node_B
WIRE 336 1184 336 1248
FLAG 336 1248 v_ap_drive
SYMBOL res 576 1088 R0
SYMATTR InstName R_a1
SYMATTR Value 1e+06
WIRE 592 1104 592 1040
FLAG 592 1040 node_A
WIRE 592 1184 592 1248
FLAG 592 1248 n_diff_plus
SYMBOL res 832 1088 R0
SYMATTR InstName R_a2
SYMATTR Value 1e+06
WIRE 848 1104 848 1040
FLAG 848 1040 n_diff_plus
WIRE 848 1184 848 1248
FLAG 848 1248 0
SYMBOL res 1088 1088 R0
SYMATTR InstName R_b1
SYMATTR Value 1e+06
WIRE 1104 1104 1104 1040
FLAG 1104 1040 node_B
WIRE 1104 1184 1104 1248
FLAG 1104 1248 n_diff_minus
SYMBOL res 1344 1088 R0
SYMATTR InstName R_b2
SYMATTR Value 1e+06
WIRE 1360 1104 1360 1040
FLAG 1360 1040 n_diff_minus
WIRE 1360 1184 1360 1248
FLAG 1360 1248 n_diff
SYMBOL opamp2 1600 1088 R0
SYMATTR InstName XU_diff
SYMATTR Value uopamp_lvl2
SYMATTR Value2 Avol=10meg GBW=4.5meg Rin=100g Rout=10 Iq=600u Ilimit=65m Vrail=100m Vmax=40 Vos=2.500000e-03
WIRE 1600 1120 1536 1120
FLAG 1536 1120 n_diff_plus
WIRE 1600 1152 1536 1152
FLAG 1536 1152 n_diff_minus
WIRE 1632 1088 1632 1024
FLAG 1632 1024 vcc
WIRE 1632 1184 1632 1248
FLAG 1632 1248 vee
WIRE 1696 1136 1760 1136
FLAG 1760 1136 n_diff
SYMBOL opamp2 1856 1088 R0
SYMATTR InstName XU_cmp
SYMATTR Value uopamp_lvl2
SYMATTR Value2 Avol=10meg GBW=4.5meg Rin=100g Rout=10 Iq=600u Ilimit=65m Vrail=100m Vmax=40 Vos=2.500000e-03
WIRE 1856 1120 1792 1120
FLAG 1792 1120 v_osc
WIRE 1856 1152 1792 1152
FLAG 1792 1152 0
WIRE 1888 1088 1888 1024
FLAG 1888 1024 vcc
WIRE 1888 1184 1888 1248
FLAG 1888 1248 vee
WIRE 1952 1136 2016 1136
FLAG 2016 1136 n_cmp
SYMBOL sw 64 1344 R0
SYMATTR InstName S1
SYMATTR Value swMod
WIRE 32 1328 32 1264
FLAG 32 1264 n_diff
WIRE 96 1328 96 1264
FLAG 96 1264 vplus
WIRE 32 1360 32 1424
FLAG 32 1424 n_cmp
WIRE 96 1360 96 1424
FLAG 96 1424 0
SYMBOL sw 320 1344 R0
SYMATTR InstName S2
SYMATTR Value swMod
WIRE 288 1328 288 1264
FLAG 288 1264 0
WIRE 352 1328 352 1264
FLAG 352 1264 vplus
WIRE 288 1360 288 1424
FLAG 288 1424 0
WIRE 352 1360 352 1424
FLAG 352 1424 n_cmp
SYMBOL res 576 1344 R0
SYMATTR InstName R_bias
SYMATTR Value 1Meg
WIRE 592 1360 592 1296
FLAG 592 1296 vplus
WIRE 592 1440 592 1504
FLAG 592 1504 0
SYMBOL res 832 1344 R0
SYMATTR InstName R_din
SYMATTR Value 10k
WIRE 848 1360 848 1296
FLAG 848 1296 n_diff
WIRE 848 1440 848 1504
FLAG 848 1504 n_dem_minus
SYMBOL res 1088 1344 R0
SYMATTR InstName R_dfb
SYMATTR Value 10k
WIRE 1104 1360 1104 1296
FLAG 1104 1296 n_demout
WIRE 1104 1440 1104 1504
FLAG 1104 1504 n_dem_minus
SYMBOL opamp2 1344 1344 R0
SYMATTR InstName XU_dem
SYMATTR Value uopamp_lvl2
SYMATTR Value2 Avol=10meg GBW=4.5meg Rin=100g Rout=10 Iq=600u Ilimit=50m Vrail=100m Vmax=40 Vos=5.000000e-06
WIRE 1344 1376 1280 1376
FLAG 1280 1376 vplus
WIRE 1344 1408 1280 1408
FLAG 1280 1408 n_dem_minus
WIRE 1376 1344 1376 1280
FLAG 1376 1280 vcc
WIRE 1376 1440 1376 1504
FLAG 1376 1504 vee
WIRE 1440 1392 1504 1392
FLAG 1504 1392 n_demout
SYMBOL res 1600 1344 R0
SYMATTR InstName R_intin
SYMATTR Value 70000
WIRE 1616 1360 1616 1296
FLAG 1616 1296 n_demout
WIRE 1616 1440 1616 1504
FLAG 1616 1504 n_int_minus
SYMBOL cap 1856 1344 R0
SYMATTR InstName C_intin
SYMATTR Value 1.000000e-09
WIRE 1872 1344 1872 1280
FLAG 1872 1280 n_demout
WIRE 1872 1408 1872 1472
FLAG 1872 1472 n_int_minus
SYMBOL res 64 1600 R0
SYMATTR InstName R_intfb
SYMATTR Value 700000
WIRE 80 1616 80 1552
FLAG 80 1552 n_int_pidp
WIRE 80 1696 80 1760
FLAG 80 1760 v_int_raw
SYMBOL cap 320 1600 R0
SYMATTR InstName C_intfb
SYMATTR Value 3.183099e-07
WIRE 336 1600 336 1536
FLAG 336 1536 n_int_minus
WIRE 336 1664 336 1728
FLAG 336 1728 n_int_pidp
SYMBOL cap 576 1600 R0
SYMATTR InstName C_hf
SYMATTR Value 1.000000e-08
WIRE 592 1600 592 1536
FLAG 592 1536 n_int_pidp
WIRE 592 1664 592 1728
FLAG 592 1728 v_int_raw
SYMBOL opamp2 832 1600 R0
SYMATTR InstName XU_int
SYMATTR Value uopamp_lvl2
SYMATTR Value2 Avol=10meg GBW=4.5meg Rin=100g Rout=10 Iq=600u Ilimit=50m Vrail=100m Vmax=40 Vos=5.000000e-06
WIRE 832 1632 768 1632
FLAG 768 1632 0
WIRE 832 1664 768 1664
FLAG 768 1664 n_int_minus
WIRE 864 1600 864 1536
FLAG 864 1536 vcc
WIRE 864 1696 864 1760
FLAG 864 1760 vee
WIRE 928 1648 992 1648
FLAG 992 1648 v_int_raw
SYMBOL voltage 1088 1600 R0
SYMATTR InstName V_clamp_hi
SYMATTR Value 6
WIRE 1104 1600 1104 1536
FLAG 1104 1536 v_clamp_hi
WIRE 1104 1696 1104 1760
FLAG 1104 1760 0
SYMBOL voltage 1344 1600 R0
SYMATTR InstName V_clamp_lo
SYMATTR Value -0.7
WIRE 1360 1600 1360 1536
FLAG 1360 1536 v_clamp_lo
WIRE 1360 1696 1360 1760
FLAG 1360 1760 0
SYMBOL res 1600 1600 R0
SYMATTR InstName R_aw_out
SYMATTR Value 10
WIRE 1616 1616 1616 1552
FLAG 1616 1552 v_int_raw
WIRE 1616 1696 1616 1760
FLAG 1616 1760 v_int_out
SYMBOL diode 1856 1600 R0
SYMATTR InstName D_aw_hi
SYMATTR Value Dclamp
WIRE 1872 1600 1872 1536
FLAG 1872 1536 v_int_out
WIRE 1872 1664 1872 1728
FLAG 1872 1728 v_clamp_hi
SYMBOL diode 64 1856 R0
SYMATTR InstName D_aw_lo
SYMATTR Value Dclamp
WIRE 80 1856 80 1792
FLAG 80 1792 v_clamp_lo
WIRE 80 1920 80 1984
FLAG 80 1984 v_int_out
SYMBOL res 320 1856 R0
SYMATTR InstName R_diff1
SYMATTR Value 100k
WIRE 336 1872 336 1808
FLAG 336 1808 v_int_out
WIRE 336 1952 336 2016
FLAG 336 2016 n_aw_diff_minus
SYMBOL res 576 1856 R0
SYMATTR InstName R_diff2
SYMATTR Value 100k
WIRE 592 1872 592 1808
FLAG 592 1808 v_int_raw
WIRE 592 1952 592 2016
FLAG 592 2016 n_aw_diff_plus
SYMBOL res 832 1856 R0
SYMATTR InstName R_diff3
SYMATTR Value 100k
WIRE 848 1872 848 1808
FLAG 848 1808 n_aw_diff_minus
WIRE 848 1952 848 2016
FLAG 848 2016 e_sat
SYMBOL res 1088 1856 R0
SYMATTR InstName R_diff4
SYMATTR Value 100k
WIRE 1104 1872 1104 1808
FLAG 1104 1808 n_aw_diff_plus
WIRE 1104 1952 1104 2016
FLAG 1104 2016 0
SYMBOL opamp2 1344 1856 R0
SYMATTR InstName XU_aw_diff
SYMATTR Value uopamp_lvl2
SYMATTR Value2 Avol=10meg GBW=4.5meg Rin=100g Rout=10 Iq=600u Ilimit=50m Vrail=100m Vmax=40 Vos=5.000000e-06
WIRE 1344 1888 1280 1888
FLAG 1280 1888 n_aw_diff_plus
WIRE 1344 1920 1280 1920
FLAG 1280 1920 n_aw_diff_minus
WIRE 1376 1856 1376 1792
FLAG 1376 1792 vcc
WIRE 1376 1952 1376 2016
FLAG 1376 2016 vee
WIRE 1440 1904 1504 1904
FLAG 1504 1904 e_sat
SYMBOL res 1600 1856 R0
SYMATTR InstName R_bc
SYMATTR Value 70000
WIRE 1616 1872 1616 1808
FLAG 1616 1808 e_sat
WIRE 1616 1952 1616 2016
FLAG 1616 2016 n_int_minus
SYMBOL voltage 1856 1856 R0
SYMATTR InstName V_offset_ref
SYMATTR Value 2
WIRE 1872 1856 1872 1792
FLAG 1872 1792 v_offset_ref
WIRE 1872 1952 1872 2016
FLAG 1872 2016 0
SYMBOL res 64 2112 R0
SYMATTR InstName R_sum_in_a
SYMATTR Value 100k
WIRE 80 2128 80 2064
FLAG 80 2064 v_int_out
WIRE 80 2208 80 2272
FLAG 80 2272 n_sum_plus
SYMBOL res 320 2112 R0
SYMATTR InstName R_sum_in_b
SYMATTR Value 100k
WIRE 336 2128 336 2064
FLAG 336 2064 v_offset_ref
WIRE 336 2208 336 2272
FLAG 336 2272 n_sum_plus
SYMBOL res 576 2112 R0
SYMATTR InstName R_sum_fb
SYMATTR Value 100k
WIRE 592 2128 592 2064
FLAG 592 2064 v_ctl
WIRE 592 2208 592 2272
FLAG 592 2272 n_sum_minus
SYMBOL res 832 2112 R0
SYMATTR InstName R_sum_gnd
SYMATTR Value 100k
WIRE 848 2128 848 2064
FLAG 848 2064 n_sum_minus
WIRE 848 2208 848 2272
FLAG 848 2272 0
SYMBOL opamp2 1088 2112 R0
SYMATTR InstName XU_sum
SYMATTR Value uopamp_lvl2
SYMATTR Value2 Avol=10meg GBW=4.5meg Rin=100g Rout=10 Iq=600u Ilimit=65m Vrail=100m Vmax=40 Vos=2.500000e-03
WIRE 1088 2144 1024 2144
FLAG 1024 2144 n_sum_plus
WIRE 1088 2176 1024 2176
FLAG 1024 2176 n_sum_minus
WIRE 1120 2112 1120 2048
FLAG 1120 2048 vcc
WIRE 1120 2208 1120 2272
FLAG 1120 2272 vee
WIRE 1184 2160 1248 2160
FLAG 1248 2160 v_ctl
SYMBOL res 1344 2112 R0
SYMATTR InstName R_atten_top
SYMATTR Value 56k
WIRE 1360 2128 1360 2064
FLAG 1360 2064 v_osc
WIRE 1360 2208 1360 2272
FLAG 1360 2272 v_atten_input
SYMBOL res 1600 2112 R0
SYMATTR InstName R_atten_bot
SYMATTR Value 9.1k
WIRE 1616 2128 1616 2064
FLAG 1616 2064 v_atten_input
WIRE 1616 2208 1616 2272
FLAG 1616 2272 0
SYMBOL opamp2 1856 2112 R0
SYMATTR InstName XU_buf0
SYMATTR Value uopamp_lvl2
SYMATTR Value2 Avol=10meg GBW=4.5meg Rin=100g Rout=10 Iq=600u Ilimit=65m Vrail=100m Vmax=40 Vos=2.500000e-03
WIRE 1856 2144 1792 2144
FLAG 1792 2144 v_atten_input
WIRE 1856 2176 1792 2176
FLAG 1792 2176 v_drv_atten
WIRE 1888 2112 1888 2048
FLAG 1888 2048 vcc
WIRE 1888 2208 1888 2272
FLAG 1888 2272 vee
WIRE 1952 2160 2016 2160
FLAG 2016 2160 v_drv_atten
SYMBOL opamp2 64 2368 R0
SYMATTR InstName XU_buf_osc
SYMATTR Value uopamp_lvl2
SYMATTR Value2 Avol=10meg GBW=4.5meg Rin=100g Rout=10 Iq=600u Ilimit=65m Vrail=100m Vmax=40 Vos=2.500000e-03
WIRE 64 2400 0 2400
FLAG 0 2400 v_drv_atten
WIRE 64 2432 0 2432
FLAG 0 2432 n_buf_osc_fb
WIRE 96 2368 96 2304
FLAG 96 2304 vcc_buf
WIRE 96 2464 96 2528
FLAG 96 2528 vee_buf
WIRE 160 2416 224 2416
FLAG 224 2416 n_buf_osc_out
SYMBOL res 320 2368 R0
SYMATTR InstName R_buf1_fb1
SYMATTR Value 2500
WIRE 336 2384 336 2320
FLAG 336 2320 v_osc_drive
WIRE 336 2464 336 2528
FLAG 336 2528 n_buf_osc_fb
SYMBOL res 576 2368 R0
SYMATTR InstName R_buf1_fb2
SYMATTR Value 1k
WIRE 592 2384 592 2320
FLAG 592 2320 n_buf_osc_fb
WIRE 592 2464 592 2528
FLAG 592 2528 0
SYMBOL res 832 2368 R0
SYMATTR InstName R_obb_top_a
SYMATTR Value 680
WIRE 848 2384 848 2320
FLAG 848 2320 vcc_buf
WIRE 848 2464 848 2528
FLAG 848 2528 mid_obb_top
SYMBOL res 1088 2368 R0
SYMATTR InstName R_obb_top_b
SYMATTR Value 680
WIRE 1104 2384 1104 2320
FLAG 1104 2320 mid_obb_top
WIRE 1104 2464 1104 2528
FLAG 1104 2528 q_o_bn
SYMBOL cap 1344 2368 R0
SYMATTR InstName C_obb_top
SYMATTR Value 4.7u
WIRE 1360 2368 1360 2304
FLAG 1360 2304 mid_obb_top
WIRE 1360 2432 1360 2496
FLAG 1360 2496 v_osc_drive
SYMBOL diode 1600 2368 R0
SYMATTR InstName D_obb_top
SYMATTR Value Dbias
WIRE 1616 2368 1616 2304
FLAG 1616 2304 q_o_bn
WIRE 1616 2432 1616 2496
FLAG 1616 2496 n_buf_osc_out
SYMBOL diode 1856 2368 R0
SYMATTR InstName D_obb_bot
SYMATTR Value Dbias
WIRE 1872 2368 1872 2304
FLAG 1872 2304 n_buf_osc_out
WIRE 1872 2432 1872 2496
FLAG 1872 2496 q_o_bp
SYMBOL res 64 2624 R0
SYMATTR InstName R_obb_bot_b
SYMATTR Value 680
WIRE 80 2640 80 2576
FLAG 80 2576 q_o_bp
WIRE 80 2720 80 2784
FLAG 80 2784 mid_obb_bot
SYMBOL res 320 2624 R0
SYMATTR InstName R_obb_bot_a
SYMATTR Value 680
WIRE 336 2640 336 2576
FLAG 336 2576 mid_obb_bot
WIRE 336 2720 336 2784
FLAG 336 2784 vee_buf
SYMBOL cap 576 2624 R0
SYMATTR InstName C_obb_bot
SYMATTR Value 4.7u
WIRE 592 2624 592 2560
FLAG 592 2560 mid_obb_bot
WIRE 592 2688 592 2752
FLAG 592 2752 v_osc_drive
SYMBOL npn 832 2624 R0
SYMATTR InstName Q_o_npn
SYMATTR Value QBC337
WIRE 896 2640 896 2576
FLAG 896 2576 vcc_buf
WIRE 848 2688 784 2688
FLAG 784 2688 q_o_bn
WIRE 896 2720 896 2784
FLAG 896 2784 v_osc_drive
SYMBOL pnp 1088 2624 R0
SYMATTR InstName Q_o_pnp
SYMATTR Value QBC327
WIRE 1152 2640 1152 2576
FLAG 1152 2576 vee_buf
WIRE 1104 2688 1040 2688
FLAG 1040 2688 q_o_bp
WIRE 1152 2720 1152 2784
FLAG 1152 2784 v_osc_drive
SYMBOL cap 1344 2624 R0
SYMATTR InstName C_buf2_dcblock
SYMATTR Value 100n
WIRE 1360 2624 1360 2560
FLAG 1360 2560 v_ap
WIRE 1360 2688 1360 2752
FLAG 1360 2752 n_buf2_ac
SYMBOL res 1600 2624 R0
SYMATTR InstName R_buf2_dcref
SYMATTR Value 100k
WIRE 1616 2640 1616 2576
FLAG 1616 2576 n_buf2_ac
WIRE 1616 2720 1616 2784
FLAG 1616 2784 0
SYMBOL opamp2 1856 2624 R0
SYMATTR InstName XU_buf_ap
SYMATTR Value uopamp_lvl2
SYMATTR Value2 Avol=10meg GBW=4.5meg Rin=100g Rout=10 Iq=600u Ilimit=65m Vrail=100m Vmax=40 Vos=2.500000e-03
WIRE 1856 2656 1792 2656
FLAG 1792 2656 n_buf2_ac
WIRE 1856 2688 1792 2688
FLAG 1792 2688 n_buf_ap_fb
WIRE 1888 2624 1888 2560
FLAG 1888 2560 vcc_buf
WIRE 1888 2720 1888 2784
FLAG 1888 2784 vee_buf
WIRE 1952 2672 2016 2672
FLAG 2016 2672 n_buf_ap_out
SYMBOL res 64 2880 R0
SYMATTR InstName R_buf2_fb1
SYMATTR Value 2500
WIRE 80 2896 80 2832
FLAG 80 2832 v_ap_drive
WIRE 80 2976 80 3040
FLAG 80 3040 n_buf_ap_fb
SYMBOL res 320 2880 R0
SYMATTR InstName R_buf2_fb2
SYMATTR Value 1k
WIRE 336 2896 336 2832
FLAG 336 2832 n_buf_ap_fb
WIRE 336 2976 336 3040
FLAG 336 3040 0
SYMBOL res 576 2880 R0
SYMATTR InstName R_abb_top_a
SYMATTR Value 680
WIRE 592 2896 592 2832
FLAG 592 2832 vcc_buf
WIRE 592 2976 592 3040
FLAG 592 3040 mid_abb_top
SYMBOL res 832 2880 R0
SYMATTR InstName R_abb_top_b
SYMATTR Value 680
WIRE 848 2896 848 2832
FLAG 848 2832 mid_abb_top
WIRE 848 2976 848 3040
FLAG 848 3040 q_a_bn
SYMBOL cap 1088 2880 R0
SYMATTR InstName C_abb_top
SYMATTR Value 4.7u
WIRE 1104 2880 1104 2816
FLAG 1104 2816 mid_abb_top
WIRE 1104 2944 1104 3008
FLAG 1104 3008 v_ap_drive
SYMBOL diode 1344 2880 R0
SYMATTR InstName D_abb_top
SYMATTR Value Dbias
WIRE 1360 2880 1360 2816
FLAG 1360 2816 q_a_bn
WIRE 1360 2944 1360 3008
FLAG 1360 3008 n_buf_ap_out
SYMBOL diode 1600 2880 R0
SYMATTR InstName D_abb_bot
SYMATTR Value Dbias
WIRE 1616 2880 1616 2816
FLAG 1616 2816 n_buf_ap_out
WIRE 1616 2944 1616 3008
FLAG 1616 3008 q_a_bp
SYMBOL res 1856 2880 R0
SYMATTR InstName R_abb_bot_b
SYMATTR Value 680
WIRE 1872 2896 1872 2832
FLAG 1872 2832 q_a_bp
WIRE 1872 2976 1872 3040
FLAG 1872 3040 mid_abb_bot
SYMBOL res 64 3136 R0
SYMATTR InstName R_abb_bot_a
SYMATTR Value 680
WIRE 80 3152 80 3088
FLAG 80 3088 mid_abb_bot
WIRE 80 3232 80 3296
FLAG 80 3296 vee_buf
SYMBOL cap 320 3136 R0
SYMATTR InstName C_abb_bot
SYMATTR Value 4.7u
WIRE 336 3136 336 3072
FLAG 336 3072 mid_abb_bot
WIRE 336 3200 336 3264
FLAG 336 3264 v_ap_drive
SYMBOL npn 576 3136 R0
SYMATTR InstName Q_a_npn
SYMATTR Value QBC337
WIRE 640 3152 640 3088
FLAG 640 3088 vcc_buf
WIRE 592 3200 528 3200
FLAG 528 3200 q_a_bn
WIRE 640 3232 640 3296
FLAG 640 3296 v_ap_drive
SYMBOL pnp 832 3136 R0
SYMATTR InstName Q_a_pnp
SYMATTR Value QBC327
WIRE 896 3152 896 3088
FLAG 896 3088 vee_buf
WIRE 848 3200 784 3200
FLAG 784 3200 q_a_bp
WIRE 896 3232 896 3296
FLAG 896 3296 v_ap_drive
TEXT 64 3584 Left 2 !.include /home/lewisbrown/claude-code/smps-design-tools/ngspice_examples/uopamp.lib\n.param T_amb=300.0\n.param R_amb=2.46563\n.param sigma_eps_A=4.483188e-13\n.param C_th=9.181569e-05\n.param fil_exp=1.2000\n.subckt filament v_top v_bot T_node r_fil\n.ends filament\n.model swMod SW(VT=0 VH=0.1 RON=10 ROFF=1G)\n.model Dclamp D(Is=10n N=1.0 RS=0.1 BV=40 IBV=0.1m CJO=10p)\n.model Dbias  D(IS=2.52n N=1.752 RS=0.568 BV=80 IBV=0.1m CJO=4p)\n.model Dschottky D(IS=10n N=1.0 RS=0.1 BV=20 IBV=0.1m CJO=10p)\n.model QBC337 NPN(IS=1e-14 BF=300 BR=10 RB=10 RC=0.5 RE=0.1 IKF=0.8 CJC=11p CJE=20p VAF=100)\n.model QBC327 PNP(IS=1e-14 BF=300 BR=10 RB=10 RC=0.5 RE=0.1 IKF=0.8 CJC=11p CJE=20p VAF=100)\n.include /home/lewisbrown/claude-code/smps-design-tools/ngspice_examples/spice_models/DMP3098L.spice.txt\n.include /home/lewisbrown/claude-code/smps-design-tools/ngspice_examples/spice_models/DMN3404L.spice.txt\n.model Q2N3904 NPN(IS=6.734f XTI=3 EG=1.11 VAF=74.03 BF=416.4 NE=1.259 ISE=6.734f IKF=66.78m XTB=1.5 BR=.7371 NC=2 ISC=0 IKR=0 RC=1 CJC=3.638p MJC=.3085 VJC=.75 FC=.5 CJE=4.493p MJE=.2593 VJE=.75 TR=239.5n TF=301.2p ITF=.4 VTF=4 XTF=2 RB=10)\n.options reltol=1e-4 abstol=1p chgtol=1f\n.save v(v_osc_drive) v(v_ap_drive) v(node_A) v(node_B) v(n_diff) v(n_demout) v(v_ctl) v(v_int_out) v(T_node) v(r_fil) v(v_int_raw) v(e_sat)\n.tran 10u 5.0 UIC\n.control\n* run\n* wrdata _unused.data v(v_osc_drive) v(v_ap_drive) v(node_A) v(node_B) v(n_diff) v(n_demout) v(v_ctl) v(v_int_out) v(T_node) v(r_fil) v(v_int_raw) v(e_sat)\n.endcontrol\n.end
