Version 4
SHEET 1 8000 8000
TEXT 64 16 Left 4 ;VFD-filament regulator for IV-3 (tube=iv3)
SYMBOL voltage 64 64 R0
SYMATTR InstName Vcc
SYMATTR Value 9.0
WIRE 80 64 80 0
FLAG 80 0 vcc
WIRE 80 144 80 208
FLAG 80 208 0
SYMBOL voltage 320 64 R0
SYMATTR InstName Vee
SYMATTR Value -9.0
WIRE 336 64 336 0
FLAG 336 0 vee
WIRE 336 144 336 208
FLAG 336 208 0
SYMBOL res 576 64 R0
SYMATTR InstName R1
SYMATTR Value 10000
WIRE 592 64 592 0
FLAG 592 0 v_osc
WIRE 592 144 592 208
FLAG 592 208 ns
SYMBOL cap 832 64 R0
SYMATTR InstName C1
SYMATTR Value 1.591500e-08
WIRE 848 64 848 0
FLAG 848 0 ns
WIRE 848 128 848 192
FLAG 848 192 np
SYMBOL res 1088 64 R0
SYMATTR InstName R2
SYMATTR Value 10000
WIRE 1104 64 1104 0
FLAG 1104 0 np
WIRE 1104 144 1104 208
FLAG 1104 208 0
SYMBOL cap 1344 64 R0
SYMATTR InstName C2
SYMATTR Value 1.591500e-08
WIRE 1360 64 1360 0
FLAG 1360 0 np
WIRE 1360 128 1360 192
FLAG 1360 192 0
SYMBOL res 1600 64 R0
SYMATTR InstName Rg
SYMATTR Value 10k
WIRE 1616 64 1616 0
FLAG 1616 0 nn
WIRE 1616 144 1616 208
FLAG 1616 208 0
SYMBOL res 1856 64 R0
SYMATTR InstName Rfa
SYMATTR Value 10k
WIRE 1872 64 1872 0
FLAG 1872 0 nn
WIRE 1872 144 1872 208
FLAG 1872 208 fb
SYMBOL res 64 320 R0
SYMATTR InstName Rfb
SYMATTR Value 12k
WIRE 80 320 80 256
FLAG 80 256 fb
WIRE 80 400 80 464
FLAG 80 464 v_osc
SYMBOL npn 320 320 R0
SYMATTR InstName Q1
SYMATTR Value Q2N3904
WIRE 384 336 384 400
FLAG 384 400 fb
WIRE 320 368 256 368
FLAG 256 368 b1
WIRE 384 400 384 464
FLAG 384 464 v_osc
SYMBOL npn 576 320 R0
SYMATTR InstName Q2
SYMATTR Value Q2N3904
WIRE 640 336 640 400
FLAG 640 400 v_osc
WIRE 576 368 512 368
FLAG 512 368 b2
WIRE 640 400 640 464
FLAG 640 464 fb
SYMBOL res 832 320 R0
SYMATTR InstName Rtop1
SYMATTR Value 120000
WIRE 848 320 848 256
FLAG 848 256 fb
WIRE 848 400 848 464
FLAG 848 464 b1
SYMBOL res 1088 320 R0
SYMATTR InstName Rbot1
SYMATTR Value 120000
WIRE 1104 320 1104 256
FLAG 1104 256 b1
WIRE 1104 400 1104 464
FLAG 1104 464 v_osc
SYMBOL res 1344 320 R0
SYMATTR InstName Rtop2
SYMATTR Value 120000
WIRE 1360 320 1360 256
FLAG 1360 256 v_osc
WIRE 1360 400 1360 464
FLAG 1360 464 b2
SYMBOL res 1600 320 R0
SYMATTR InstName Rbot2
SYMATTR Value 120000
WIRE 1616 320 1616 256
FLAG 1616 256 b2
WIRE 1616 400 1616 464
FLAG 1616 464 fb
SYMBOL opamp2 1856 320 R0
SYMATTR InstName XU_osc
SYMATTR Value uopamp_lvl2
SYMATTR Value2 Avol=10meg GBW=4.5meg Rin=100g Rout=10 Iq=600u Ilimit=1 Vrail=100m Vmax=40 Vos=2.500000e-03
WIRE 1856 352 1792 352
FLAG 1792 352 np
WIRE 1856 384 1792 384
FLAG 1792 384 nn
WIRE 1872 336 1872 400
FLAG 1872 400 vcc
WIRE 1872 400 1872 464
FLAG 1872 464 vee
WIRE 1952 368 1952 432
FLAG 1952 432 v_osc
SYMBOL res 64 576 R0
SYMATTR InstName R_ap1
SYMATTR Value 1590
WIRE 80 576 80 512
FLAG 80 512 v_osc
WIRE 80 656 80 720
FLAG 80 720 n_ap_minus
SYMBOL res 320 576 R0
SYMATTR InstName R_ap2
SYMATTR Value 1590
WIRE 336 576 336 512
FLAG 336 512 v_ap
WIRE 336 656 336 720
FLAG 336 720 n_ap_minus
SYMBOL njf 576 576 R0
SYMATTR InstName J_var
SYMATTR Value J201
WIRE 640 592 640 656
FLAG 640 656 v_osc
WIRE 576 624 512 624
FLAG 512 624 v_ctl
WIRE 640 656 640 720
FLAG 640 720 n_ap_plus
SYMBOL cap 832 576 R0
SYMATTR InstName C_ap
SYMATTR Value 1.000000e-07
WIRE 848 576 848 512
FLAG 848 512 n_ap_plus
WIRE 848 640 848 704
FLAG 848 704 0
SYMBOL opamp2 1088 576 R0
SYMATTR InstName XU_ap
SYMATTR Value uopamp_lvl2
SYMATTR Value2 Avol=10meg GBW=4.5meg Rin=100g Rout=10 Iq=600u Ilimit=1 Vrail=100m Vmax=40 Vos=2.500000e-03
WIRE 1088 608 1024 608
FLAG 1024 608 n_ap_plus
WIRE 1088 640 1024 640
FLAG 1024 640 n_ap_minus
WIRE 1104 592 1104 656
FLAG 1104 656 vcc
WIRE 1104 656 1104 720
FLAG 1104 720 vee
WIRE 1184 624 1184 688
FLAG 1184 688 v_ap
SYMBOL bi 1344 576 R0
SYMATTR InstName B_fil
SYMATTR Value I = (V(v_osc) - V(node_A)) / (R_amb * (V(T_node)/T_amb)^fil_exp)
WIRE 1360 576 1360 512
FLAG 1360 512 v_osc
WIRE 1360 656 1360 720
FLAG 1360 720 node_A
SYMBOL res 1600 576 R0
SYMATTR InstName R_sen
SYMATTR Value 10
WIRE 1616 576 1616 512
FLAG 1616 512 node_A
WIRE 1616 656 1616 720
FLAG 1616 720 v_ap
SYMBOL res 1856 576 R0
SYMATTR InstName R_top_ref
SYMATTR Value 990
WIRE 1872 576 1872 512
FLAG 1872 512 v_osc
WIRE 1872 656 1872 720
FLAG 1872 720 node_B
SYMBOL res 64 832 R0
SYMATTR InstName R_bot_ref
SYMATTR Value 100
WIRE 80 832 80 768
FLAG 80 768 node_B
WIRE 80 912 80 976
FLAG 80 976 v_ap
SYMBOL bi 320 832 R0
SYMATTR InstName B_pelec
SYMATTR Value I = (V(v_osc)-V(node_A))*(V(v_osc)-V(node_A)) / (R_amb * (V(T_node)/T_amb)^fil_exp)
WIRE 336 832 336 768
FLAG 336 768 0
WIRE 336 912 336 976
FLAG 336 976 T_node
SYMBOL bi 576 832 R0
SYMATTR InstName B_prad
SYMATTR Value I = sigma_eps_A * (V(T_node)^4 - T_amb^4)
WIRE 592 832 592 768
FLAG 592 768 T_node
WIRE 592 912 592 976
FLAG 592 976 0
SYMBOL cap 832 832 R0
SYMATTR InstName C_th
SYMATTR Value {C_th}
WIRE 848 832 848 768
FLAG 848 768 T_node
WIRE 848 896 848 960
FLAG 848 960 0
SYMBOL bv 1088 832 R0
SYMATTR InstName B_R
SYMATTR Value V = R_amb * (V(T_node)/T_amb)^fil_exp
WIRE 1104 832 1104 768
FLAG 1104 768 r_fil
WIRE 1104 912 1104 976
FLAG 1104 976 0
SYMBOL res 1344 832 R0
SYMATTR InstName R_a1
SYMATTR Value 10000
WIRE 1360 832 1360 768
FLAG 1360 768 node_A
WIRE 1360 912 1360 976
FLAG 1360 976 n_diff_minus
SYMBOL res 1600 832 R0
SYMATTR InstName R_a2
SYMATTR Value 10000
WIRE 1616 832 1616 768
FLAG 1616 768 n_diff_minus
WIRE 1616 912 1616 976
FLAG 1616 976 n_diff
SYMBOL res 1856 832 R0
SYMATTR InstName R_b1
SYMATTR Value 10000
WIRE 1872 832 1872 768
FLAG 1872 768 node_B
WIRE 1872 912 1872 976
FLAG 1872 976 n_diff_plus
SYMBOL res 64 1088 R0
SYMATTR InstName R_b2
SYMATTR Value 10000
WIRE 80 1088 80 1024
FLAG 80 1024 n_diff_plus
WIRE 80 1168 80 1232
FLAG 80 1232 0
SYMBOL opamp2 320 1088 R0
SYMATTR InstName XU_diff
SYMATTR Value uopamp_lvl2
SYMATTR Value2 Avol=10meg GBW=4.5meg Rin=100g Rout=10 Iq=600u Ilimit=1 Vrail=100m Vmax=40 Vos=2.500000e-03
WIRE 320 1120 256 1120
FLAG 256 1120 n_diff_plus
WIRE 320 1152 256 1152
FLAG 256 1152 n_diff_minus
WIRE 336 1104 336 1168
FLAG 336 1168 vcc
WIRE 336 1168 336 1232
FLAG 336 1232 vee
WIRE 416 1136 416 1200
FLAG 416 1200 n_diff
SYMBOL bv 576 1088 R0
SYMATTR InstName B_cmp
SYMATTR Value V = 5 * tanh(V(v_osc) * 1000)
WIRE 592 1088 592 1024
FLAG 592 1024 n_cmp
WIRE 592 1168 592 1232
FLAG 592 1232 0
SYMBOL sw 832 1088 R0
SYMATTR InstName S1
SYMATTR Value swMod
WIRE 832 1088 768 1088
FLAG 768 1088 n_diff
WIRE 928 1088 928 1024
FLAG 928 1024 vplus
WIRE 864 1120 864 1184
FLAG 864 1184 n_cmp
WIRE 896 1120 896 1184
FLAG 896 1184 0
SYMBOL sw 1088 1088 R0
SYMATTR InstName S2
SYMATTR Value swMod
WIRE 1088 1088 1024 1088
FLAG 1024 1088 0
WIRE 1184 1088 1184 1024
FLAG 1184 1024 vplus
WIRE 1120 1120 1120 1184
FLAG 1120 1184 0
WIRE 1152 1120 1152 1184
FLAG 1152 1184 n_cmp
SYMBOL res 1344 1088 R0
SYMATTR InstName R_bias
SYMATTR Value 1Meg
WIRE 1360 1088 1360 1024
FLAG 1360 1024 vplus
WIRE 1360 1168 1360 1232
FLAG 1360 1232 0
SYMBOL res 1600 1088 R0
SYMATTR InstName R_din
SYMATTR Value 10k
WIRE 1616 1088 1616 1024
FLAG 1616 1024 n_diff
WIRE 1616 1168 1616 1232
FLAG 1616 1232 n_dem_minus
SYMBOL res 1856 1088 R0
SYMATTR InstName R_dfb
SYMATTR Value 10k
WIRE 1872 1088 1872 1024
FLAG 1872 1024 n_demout
WIRE 1872 1168 1872 1232
FLAG 1872 1232 n_dem_minus
SYMBOL opamp2 64 1344 R0
SYMATTR InstName XU_dem
SYMATTR Value uopamp_lvl2
SYMATTR Value2 Avol=10meg GBW=4.5meg Rin=100g Rout=10 Iq=600u Ilimit=1 Vrail=100m Vmax=40 Vos=2.500000e-03
WIRE 64 1376 0 1376
FLAG 0 1376 vplus
WIRE 64 1408 0 1408
FLAG 0 1408 n_dem_minus
WIRE 80 1360 80 1424
FLAG 80 1424 vcc
WIRE 80 1424 80 1488
FLAG 80 1488 vee
WIRE 160 1392 160 1456
FLAG 160 1456 n_demout
SYMBOL res 320 1344 R0
SYMATTR InstName R_intin
SYMATTR Value 30000
WIRE 336 1344 336 1280
FLAG 336 1280 n_demout
WIRE 336 1424 336 1488
FLAG 336 1488 n_int_minus
SYMBOL cap 576 1344 R0
SYMATTR InstName C_intin
SYMATTR Value 1.000000e-09
WIRE 592 1344 592 1280
FLAG 592 1280 n_demout
WIRE 592 1408 592 1472
FLAG 592 1472 n_int_minus
SYMBOL res 832 1344 R0
SYMATTR InstName R_intfb
SYMATTR Value 300000
WIRE 848 1344 848 1280
FLAG 848 1280 n_int_pidp
WIRE 848 1424 848 1488
FLAG 848 1488 v_int_out
SYMBOL cap 1088 1344 R0
SYMATTR InstName C_intfb
SYMATTR Value 3.183099e-07
WIRE 1104 1344 1104 1280
FLAG 1104 1280 n_int_minus
WIRE 1104 1408 1104 1472
FLAG 1104 1472 n_int_pidp
SYMBOL cap 1344 1344 R0
SYMATTR InstName C_hf
SYMATTR Value 1.000000e-08
WIRE 1360 1344 1360 1280
FLAG 1360 1280 n_int_pidp
WIRE 1360 1408 1360 1472
FLAG 1360 1472 v_int_out
SYMBOL opamp2 1600 1344 R0
SYMATTR InstName XU_int
SYMATTR Value uopamp_lvl2
SYMATTR Value2 Avol=10meg GBW=4.5meg Rin=100g Rout=10 Iq=600u Ilimit=1 Vrail=100m Vmax=40 Vos=2.500000e-03
WIRE 1600 1376 1536 1376
FLAG 1536 1376 0
WIRE 1600 1408 1536 1408
FLAG 1536 1408 n_int_minus
WIRE 1616 1360 1616 1424
FLAG 1616 1424 vcc
WIRE 1616 1424 1616 1488
FLAG 1616 1488 vee
WIRE 1696 1392 1696 1456
FLAG 1696 1456 v_int_out
SYMBOL bi 1856 1344 R0
SYMATTR InstName B_aw
SYMATTR Value I = (V(v_int_out) > 1.0) * (V(v_int_out) - 1.0) * 1e3 + (V(v_int_out) < 0) * V(v_int_out) * 1e3
WIRE 1872 1344 1872 1280
FLAG 1872 1280 v_int_out
WIRE 1872 1424 1872 1488
FLAG 1872 1488 0
SYMBOL bv 64 1600 R0
SYMATTR InstName B_ctl
SYMATTR Value V = max(-1.0, min(0, -V(v_int_out)))
WIRE 80 1600 80 1536
FLAG 80 1536 v_ctl
WIRE 80 1680 80 1744
FLAG 80 1744 0
SYMBOL voltage 320 1600 R0
SYMATTR InstName V_preset_src
SYMATTR Value 0.5500
WIRE 336 1600 336 1536
FLAG 336 1536 v_preset_node
WIRE 336 1680 336 1744
FLAG 336 1744 0
SYMBOL voltage 576 1600 R0
SYMATTR InstName V_ss
SYMATTR Value PWL(0 1 9.999900e-02 1 1.000000e-01 0 1 0)
WIRE 592 1600 592 1536
FLAG 592 1536 vss
WIRE 592 1680 592 1744
FLAG 592 1744 0
SYMBOL sw 832 1600 R0
SYMATTR InstName S_ss
SYMATTR Value swSS
WIRE 832 1600 768 1600
FLAG 768 1600 v_int_out
WIRE 928 1600 928 1536
FLAG 928 1536 v_preset_node
WIRE 864 1632 864 1696
FLAG 864 1696 vss
WIRE 896 1632 896 1696
FLAG 896 1696 0
TEXT 64 2048 Left 2 !.include /home/user/smps-design-tools/ngspice_examples/uopamp.lib\n.param T_amb=300.0\n.param R_amb=30.8203\n.param sigma_eps_A=2.490660e-14\n.param C_th=5.100872e-06\n.param fil_exp=1.2000\n.model J201 NJF(Vto=-1.5000 Beta=1.0000e-03 Lambda=0)\n.model swMod SW(VT=0 VH=0.1 RON=10 ROFF=1G)\n.model swSS SW(VT=0.5 VH=0 RON=0.01 ROFF=1G)\n.model Q2N3904 NPN(IS=6.734f XTI=3 EG=1.11 VAF=74.03 BF=416.4 NE=1.259 ISE=6.734f IKF=66.78m XTB=1.5 BR=.7371 NC=2 ISC=0 IKR=0 RC=1 CJC=3.638p MJC=.3085 VJC=.75 FC=.5 CJE=4.493p MJE=.2593 VJE=.75 TR=239.5n TF=301.2p ITF=.4 VTF=4 XTF=2 RB=10)\n.options reltol=1e-6 abstol=1p chgtol=1f\n.tran 10u 5.0 UIC\n.control\n* run\n* wrdata /home/user/smps-design-tools/ngspice_examples/_unused.data v(v_osc) v(v_ap) v(node_A) v(node_B) v(n_diff) v(n_demout) v(v_ctl) v(v_int_out) v(T_node) v(r_fil)\n.endcontrol\n.end
