Version 4
SHEET 1 8000 8000
TEXT 64 16 Left 4 ;VFD-filament regulator for IV-3 (tube=iv3)
SYMBOL voltage 64 64 R0
SYMATTR InstName Vcc
SYMATTR Value 9.0
WIRE 80 64 80 0
FLAG 80 0 vcc
WIRE 80 160 80 224
FLAG 80 224 0
SYMBOL voltage 320 64 R0
SYMATTR InstName Vee
SYMATTR Value -9.0
WIRE 336 64 336 0
FLAG 336 0 vee
WIRE 336 160 336 224
FLAG 336 224 0
SYMBOL voltage 576 64 R0
SYMATTR InstName Vcc_buf
SYMATTR Value 9
WIRE 592 64 592 0
FLAG 592 0 vcc_buf
WIRE 592 160 592 224
FLAG 592 224 0
SYMBOL voltage 832 64 R0
SYMATTR InstName Vee_buf
SYMATTR Value -9
WIRE 848 64 848 0
FLAG 848 0 vee_buf
WIRE 848 160 848 224
FLAG 848 224 0
SYMBOL res 1088 64 R0
SYMATTR InstName R1
SYMATTR Value 10000
WIRE 1104 80 1104 16
FLAG 1104 16 v_osc
WIRE 1104 160 1104 224
FLAG 1104 224 ns
SYMBOL cap 1344 64 R0
SYMATTR InstName C1
SYMATTR Value 1.591500e-08
WIRE 1360 64 1360 0
FLAG 1360 0 ns
WIRE 1360 128 1360 192
FLAG 1360 192 np
SYMBOL res 1600 64 R0
SYMATTR InstName R2
SYMATTR Value 10000
WIRE 1616 80 1616 16
FLAG 1616 16 np
WIRE 1616 160 1616 224
FLAG 1616 224 0
SYMBOL cap 1856 64 R0
SYMATTR InstName C2
SYMATTR Value 1.591500e-08
WIRE 1872 64 1872 0
FLAG 1872 0 np
WIRE 1872 128 1872 192
FLAG 1872 192 0
SYMBOL res 64 320 R0
SYMATTR InstName Rg
SYMATTR Value 10k
WIRE 80 336 80 272
FLAG 80 272 nn
WIRE 80 416 80 480
FLAG 80 480 0
SYMBOL res 320 320 R0
SYMATTR InstName Rfa
SYMATTR Value 10k
WIRE 336 336 336 272
FLAG 336 272 nn
WIRE 336 416 336 480
FLAG 336 480 fb
SYMBOL res 576 320 R0
SYMATTR InstName Rfb
SYMATTR Value 12k
WIRE 592 336 592 272
FLAG 592 272 fb
WIRE 592 416 592 480
FLAG 592 480 v_osc
SYMBOL npn 832 320 R0
SYMATTR InstName Q1
SYMATTR Value Q2N3904
WIRE 896 336 896 272
FLAG 896 272 fb
WIRE 848 384 784 384
FLAG 784 384 b1
WIRE 896 416 896 480
FLAG 896 480 v_osc
SYMBOL npn 1088 320 R0
SYMATTR InstName Q2
SYMATTR Value Q2N3904
WIRE 1152 336 1152 272
FLAG 1152 272 v_osc
WIRE 1104 384 1040 384
FLAG 1040 384 b2
WIRE 1152 416 1152 480
FLAG 1152 480 fb
SYMBOL res 1344 320 R0
SYMATTR InstName Rtop1
SYMATTR Value 120000
WIRE 1360 336 1360 272
FLAG 1360 272 fb
WIRE 1360 416 1360 480
FLAG 1360 480 b1
SYMBOL res 1600 320 R0
SYMATTR InstName Rbot1
SYMATTR Value 120000
WIRE 1616 336 1616 272
FLAG 1616 272 b1
WIRE 1616 416 1616 480
FLAG 1616 480 v_osc
SYMBOL res 1856 320 R0
SYMATTR InstName Rtop2
SYMATTR Value 120000
WIRE 1872 336 1872 272
FLAG 1872 272 v_osc
WIRE 1872 416 1872 480
FLAG 1872 480 b2
SYMBOL res 64 576 R0
SYMATTR InstName Rbot2
SYMATTR Value 120000
WIRE 80 592 80 528
FLAG 80 528 b2
WIRE 80 672 80 736
FLAG 80 736 fb
SYMBOL opamp2 320 576 R0
SYMATTR InstName XU_osc
SYMATTR Value uopamp_lvl2
SYMATTR Value2 Avol=10meg GBW=4.5meg Rin=100g Rout=10 Iq=600u Ilimit=1 Vrail=100m Vmax=40 Vos=2.500000e-03
WIRE 320 608 256 608
FLAG 256 608 np
WIRE 320 640 256 640
FLAG 256 640 nn
WIRE 352 576 352 512
FLAG 352 512 vcc
WIRE 352 672 352 736
FLAG 352 736 vee
WIRE 416 624 480 624
FLAG 480 624 v_osc
SYMBOL res 576 576 R0
SYMATTR InstName R_ap1
SYMATTR Value 1590
WIRE 592 592 592 528
FLAG 592 528 v_osc
WIRE 592 672 592 736
FLAG 592 736 n_ap_minus
SYMBOL res 832 576 R0
SYMATTR InstName R_ap2
SYMATTR Value 1590
WIRE 848 592 848 528
FLAG 848 528 v_ap
WIRE 848 672 848 736
FLAG 848 736 n_ap_minus
SYMBOL njf 1088 576 R0
SYMATTR InstName J_var
SYMATTR Value J2N5457
WIRE 1120 576 1120 512
FLAG 1120 512 v_osc
WIRE 1088 640 1024 640
FLAG 1024 640 v_ctl
WIRE 1120 672 1120 736
FLAG 1120 736 n_ap_plus
SYMBOL cap 1344 576 R0
SYMATTR InstName C_ap
SYMATTR Value 1.000000e-07
WIRE 1360 576 1360 512
FLAG 1360 512 n_ap_plus
WIRE 1360 640 1360 704
FLAG 1360 704 0
SYMBOL opamp2 1600 576 R0
SYMATTR InstName XU_ap
SYMATTR Value uopamp_lvl2
SYMATTR Value2 Avol=10meg GBW=4.5meg Rin=100g Rout=10 Iq=600u Ilimit=1 Vrail=100m Vmax=40 Vos=2.500000e-03
WIRE 1600 608 1536 608
FLAG 1536 608 n_ap_plus
WIRE 1600 640 1536 640
FLAG 1536 640 n_ap_minus
WIRE 1632 576 1632 512
FLAG 1632 512 vcc
WIRE 1632 672 1632 736
FLAG 1632 736 vee
WIRE 1696 624 1760 624
FLAG 1760 624 v_ap
SYMBOL bi 1856 576 R0
SYMATTR InstName B_fil
SYMATTR Value I = (V(v_top) - V(v_bot)) / (R_amb * (V(T_node)/T_amb)^fil_exp)
WIRE 1872 576 1872 512
FLAG 1872 512 v_top
WIRE 1872 656 1872 720
FLAG 1872 720 v_bot
SYMBOL bi 64 832 R0
SYMATTR InstName B_pelec
SYMATTR Value I = (V(v_top)-V(v_bot))*(V(v_top)-V(v_bot)) / (R_amb * (V(T_node)/T_amb)^fil_exp)
WIRE 80 832 80 768
FLAG 80 768 0
WIRE 80 912 80 976
FLAG 80 976 T_node
SYMBOL bi 320 832 R0
SYMATTR InstName B_prad
SYMATTR Value I = sigma_eps_A * (V(T_node)^4 - T_amb^4)
WIRE 336 832 336 768
FLAG 336 768 T_node
WIRE 336 912 336 976
FLAG 336 976 0
SYMBOL cap 576 832 R0
SYMATTR InstName C_th
SYMATTR Value {C_th}
WIRE 592 832 592 768
FLAG 592 768 T_node
WIRE 592 896 592 960
FLAG 592 960 0
SYMBOL bv 832 832 R0
SYMATTR InstName B_R
SYMATTR Value V = R_amb * (V(T_node)/T_amb)^fil_exp
WIRE 848 832 848 768
FLAG 848 768 r_fil
WIRE 848 912 848 976
FLAG 848 976 0
SYMBOL opamp2 1088 832 R0
SYMATTR InstName X_filament
SYMATTR Value uopamp_lvl2
WIRE 1088 864 1024 864
FLAG 1024 864 v_osc
WIRE 1088 896 1024 896
FLAG 1024 896 node_A
WIRE 1120 832 1120 768
FLAG 1120 768 T_node
WIRE 1120 928 1120 992
FLAG 1120 992 r_fil
WIRE 1184 880 1248 880
FLAG 1248 880 filament
SYMBOL res 1344 832 R0
SYMATTR InstName R_sen
SYMATTR Value 10
WIRE 1360 848 1360 784
FLAG 1360 784 node_A
WIRE 1360 928 1360 992
FLAG 1360 992 v_ap
SYMBOL res 1600 832 R0
SYMATTR InstName R_top_ref
SYMATTR Value 1000
WIRE 1616 848 1616 784
FLAG 1616 784 v_osc
WIRE 1616 928 1616 992
FLAG 1616 992 node_B
SYMBOL res 1856 832 R0
SYMATTR InstName R_bot_ref
SYMATTR Value 100
WIRE 1872 848 1872 784
FLAG 1872 784 node_B
WIRE 1872 928 1872 992
FLAG 1872 992 v_ap
SYMBOL res 64 1088 R0
SYMATTR InstName R_a1
SYMATTR Value 1e+06
WIRE 80 1104 80 1040
FLAG 80 1040 node_A
WIRE 80 1184 80 1248
FLAG 80 1248 n_diff_minus
SYMBOL res 320 1088 R0
SYMATTR InstName R_a2
SYMATTR Value 1e+06
WIRE 336 1104 336 1040
FLAG 336 1040 n_diff_minus
WIRE 336 1184 336 1248
FLAG 336 1248 n_diff
SYMBOL res 576 1088 R0
SYMATTR InstName R_b1
SYMATTR Value 1e+06
WIRE 592 1104 592 1040
FLAG 592 1040 node_B
WIRE 592 1184 592 1248
FLAG 592 1248 n_diff_plus
SYMBOL res 832 1088 R0
SYMATTR InstName R_b2
SYMATTR Value 1e+06
WIRE 848 1104 848 1040
FLAG 848 1040 n_diff_plus
WIRE 848 1184 848 1248
FLAG 848 1248 0
SYMBOL opamp2 1088 1088 R0
SYMATTR InstName XU_diff
SYMATTR Value uopamp_lvl2
SYMATTR Value2 Avol=10meg GBW=4.5meg Rin=100g Rout=10 Iq=600u Ilimit=1 Vrail=100m Vmax=40 Vos=2.500000e-03
WIRE 1088 1120 1024 1120
FLAG 1024 1120 n_diff_plus
WIRE 1088 1152 1024 1152
FLAG 1024 1152 n_diff_minus
WIRE 1120 1088 1120 1024
FLAG 1120 1024 vcc
WIRE 1120 1184 1120 1248
FLAG 1120 1248 vee
WIRE 1184 1136 1248 1136
FLAG 1248 1136 n_diff
SYMBOL opamp2 1344 1088 R0
SYMATTR InstName XU_cmp
SYMATTR Value uopamp_lvl2
SYMATTR Value2 Avol=10meg GBW=4.5meg Rin=100g Rout=10 Iq=600u Ilimit=1 Vrail=100m Vmax=40 Vos=2.500000e-03
WIRE 1344 1120 1280 1120
FLAG 1280 1120 v_osc
WIRE 1344 1152 1280 1152
FLAG 1280 1152 0
WIRE 1376 1088 1376 1024
FLAG 1376 1024 vcc
WIRE 1376 1184 1376 1248
FLAG 1376 1248 vee
WIRE 1440 1136 1504 1136
FLAG 1504 1136 n_cmp
SYMBOL sw 1600 1088 R0
SYMATTR InstName S1
SYMATTR Value swMod
WIRE 1568 1072 1568 1008
FLAG 1568 1008 n_diff
WIRE 1632 1072 1632 1008
FLAG 1632 1008 vplus
WIRE 1568 1104 1568 1168
FLAG 1568 1168 n_cmp
WIRE 1632 1104 1632 1168
FLAG 1632 1168 0
SYMBOL sw 1856 1088 R0
SYMATTR InstName S2
SYMATTR Value swMod
WIRE 1824 1072 1824 1008
FLAG 1824 1008 0
WIRE 1888 1072 1888 1008
FLAG 1888 1008 vplus
WIRE 1824 1104 1824 1168
FLAG 1824 1168 0
WIRE 1888 1104 1888 1168
FLAG 1888 1168 n_cmp
SYMBOL res 64 1344 R0
SYMATTR InstName R_bias
SYMATTR Value 1Meg
WIRE 80 1360 80 1296
FLAG 80 1296 vplus
WIRE 80 1440 80 1504
FLAG 80 1504 0
SYMBOL res 320 1344 R0
SYMATTR InstName R_din
SYMATTR Value 10k
WIRE 336 1360 336 1296
FLAG 336 1296 n_diff
WIRE 336 1440 336 1504
FLAG 336 1504 n_dem_minus
SYMBOL res 576 1344 R0
SYMATTR InstName R_dfb
SYMATTR Value 10k
WIRE 592 1360 592 1296
FLAG 592 1296 n_demout
WIRE 592 1440 592 1504
FLAG 592 1504 n_dem_minus
SYMBOL opamp2 832 1344 R0
SYMATTR InstName XU_dem
SYMATTR Value uopamp_lvl2
SYMATTR Value2 Avol=10meg GBW=4.5meg Rin=100g Rout=10 Iq=600u Ilimit=1 Vrail=100m Vmax=40 Vos=5.000000e-06
WIRE 832 1376 768 1376
FLAG 768 1376 vplus
WIRE 832 1408 768 1408
FLAG 768 1408 n_dem_minus
WIRE 864 1344 864 1280
FLAG 864 1280 vcc
WIRE 864 1440 864 1504
FLAG 864 1504 vee
WIRE 928 1392 992 1392
FLAG 992 1392 n_demout
SYMBOL res 1088 1344 R0
SYMATTR InstName R_intin
SYMATTR Value 30000
WIRE 1104 1360 1104 1296
FLAG 1104 1296 n_demout
WIRE 1104 1440 1104 1504
FLAG 1104 1504 n_int_minus
SYMBOL cap 1344 1344 R0
SYMATTR InstName C_intin
SYMATTR Value 1.000000e-09
WIRE 1360 1344 1360 1280
FLAG 1360 1280 n_demout
WIRE 1360 1408 1360 1472
FLAG 1360 1472 n_int_minus
SYMBOL res 1600 1344 R0
SYMATTR InstName R_intfb
SYMATTR Value 300000
WIRE 1616 1360 1616 1296
FLAG 1616 1296 n_int_pidp
WIRE 1616 1440 1616 1504
FLAG 1616 1504 v_int_out
SYMBOL cap 1856 1344 R0
SYMATTR InstName C_intfb
SYMATTR Value 3.183099e-07
WIRE 1872 1344 1872 1280
FLAG 1872 1280 n_int_minus
WIRE 1872 1408 1872 1472
FLAG 1872 1472 n_int_pidp
SYMBOL cap 64 1600 R0
SYMATTR InstName C_hf
SYMATTR Value 1.000000e-08
WIRE 80 1600 80 1536
FLAG 80 1536 n_int_pidp
WIRE 80 1664 80 1728
FLAG 80 1728 v_int_out
SYMBOL opamp2 320 1600 R0
SYMATTR InstName XU_int
SYMATTR Value uopamp_lvl2
SYMATTR Value2 Avol=10meg GBW=4.5meg Rin=100g Rout=10 Iq=600u Ilimit=1 Vrail=100m Vmax=40 Vos=5.000000e-06
WIRE 320 1632 256 1632
FLAG 256 1632 0
WIRE 320 1664 256 1664
FLAG 256 1664 n_int_minus
WIRE 352 1600 352 1536
FLAG 352 1536 vcc
WIRE 352 1696 352 1760
FLAG 352 1760 vee
WIRE 416 1648 480 1648
FLAG 480 1648 v_int_out
SYMBOL voltage 576 1600 R0
SYMATTR InstName V_clamp_hi
SYMATTR Value 1.8
WIRE 592 1600 592 1536
FLAG 592 1536 v_clamp_hi
WIRE 592 1696 592 1760
FLAG 592 1760 0
SYMBOL voltage 832 1600 R0
SYMATTR InstName V_clamp_lo
SYMATTR Value 0.3
WIRE 848 1600 848 1536
FLAG 848 1536 v_clamp_lo
WIRE 848 1696 848 1760
FLAG 848 1760 0
SYMBOL diode 1088 1600 R0
SYMATTR InstName D_aw_hi
SYMATTR Value Dclamp
WIRE 1104 1600 1104 1536
FLAG 1104 1536 v_int_out
WIRE 1104 1664 1104 1728
FLAG 1104 1728 v_clamp_hi
SYMBOL diode 1344 1600 R0
SYMATTR InstName D_aw_lo
SYMATTR Value Dclamp
WIRE 1360 1600 1360 1536
FLAG 1360 1536 v_clamp_lo
WIRE 1360 1664 1360 1728
FLAG 1360 1728 v_int_out
SYMBOL res 1600 1600 R0
SYMATTR InstName R_inv1
SYMATTR Value 100k
WIRE 1616 1616 1616 1552
FLAG 1616 1552 v_int_out
WIRE 1616 1696 1616 1760
FLAG 1616 1760 n_inv_minus
SYMBOL res 1856 1600 R0
SYMATTR InstName R_inv2
SYMATTR Value 100k
WIRE 1872 1616 1872 1552
FLAG 1872 1552 n_inv_minus
WIRE 1872 1696 1872 1760
FLAG 1872 1760 v_ctl
SYMBOL res 64 1856 R0
SYMATTR InstName R_btd
SYMATTR Value 100k
WIRE 80 1872 80 1808
FLAG 80 1808 v_osc
WIRE 80 1952 80 2016
FLAG 80 2016 n_btd_mid
SYMBOL cap 320 1856 R0
SYMATTR InstName C_btd
SYMATTR Value 10u
WIRE 336 1856 336 1792
FLAG 336 1792 n_btd_mid
WIRE 336 1920 336 1984
FLAG 336 1984 n_inv_plus
SYMBOL res 576 1856 R0
SYMATTR InstName R_bts
SYMATTR Value 100k
WIRE 592 1872 592 1808
FLAG 592 1808 n_ap_plus
WIRE 592 1952 592 2016
FLAG 592 2016 n_bts_mid
SYMBOL cap 832 1856 R0
SYMATTR InstName C_bts
SYMATTR Value 10u
WIRE 848 1856 848 1792
FLAG 848 1792 n_bts_mid
WIRE 848 1920 848 1984
FLAG 848 1984 n_inv_plus
SYMBOL res 1088 1856 R0
SYMATTR InstName R_btp
SYMATTR Value 18k
WIRE 1104 1872 1104 1808
FLAG 1104 1808 n_inv_plus
WIRE 1104 1952 1104 2016
FLAG 1104 2016 0
SYMBOL opamp2 1344 1856 R0
SYMATTR InstName XU_inv
SYMATTR Value uopamp_lvl2
SYMATTR Value2 Avol=10meg GBW=4.5meg Rin=100g Rout=10 Iq=600u Ilimit=1 Vrail=100m Vmax=40 Vos=2.500000e-03
WIRE 1344 1888 1280 1888
FLAG 1280 1888 n_inv_plus
WIRE 1344 1920 1280 1920
FLAG 1280 1920 n_inv_minus
WIRE 1376 1856 1376 1792
FLAG 1376 1792 vcc
WIRE 1376 1952 1376 2016
FLAG 1376 2016 vee
WIRE 1440 1904 1504 1904
FLAG 1504 1904 v_ctl
TEXT 64 2304 Left 2 !.include /home/user/smps-design-tools/ngspice_examples/uopamp.lib\n.param T_amb=300.0\n.param R_amb=30.8203\n.param sigma_eps_A=2.490660e-14\n.param C_th=5.100872e-06\n.param fil_exp=1.2000\n.model J2N5457 NJF(Vto=-2.5000 Beta=1.0000e-03 Lambda=0)\n.subckt filament v_top v_bot T_node r_fil\n.ends filament\n.model swMod SW(VT=0 VH=0.1 RON=10 ROFF=1G)\n.model Dclamp D(Is=2.52n Rs=0.568 N=1.752 Cjo=4p M=0.4 tt=20n)\n.model Q2N3904 NPN(IS=6.734f XTI=3 EG=1.11 VAF=74.03 BF=416.4 NE=1.259 ISE=6.734f IKF=66.78m XTB=1.5 BR=.7371 NC=2 ISC=0 IKR=0 RC=1 CJC=3.638p MJC=.3085 VJC=.75 FC=.5 CJE=4.493p MJE=.2593 VJE=.75 TR=239.5n TF=301.2p ITF=.4 VTF=4 XTF=2 RB=10)\n.options reltol=1e-4 abstol=1p chgtol=1f\n.tran 10u 5.0 UIC\n.control\n* run\n* wrdata /home/user/smps-design-tools/ngspice_examples/_unused.data v(v_osc) v(v_ap) v(node_A) v(node_B) v(n_diff) v(n_demout) v(v_ctl) v(v_int_out) v(T_node) v(r_fil)\n.endcontrol\n.end
