Version 4
SHEET 1 8000 8000
TEXT 64 16 Left 4 ;VFD-filament regulator for IV-6 (tube=iv6)
SYMBOL voltage 64 64 R0
SYMATTR InstName Vcc
SYMATTR Value 9.0
WIRE 80 64 80 0
FLAG 80 0 vcc
WIRE 80 160 80 224
FLAG 80 224 0
SYMBOL voltage 320 64 R0
SYMATTR InstName Vee
SYMATTR Value -9.0
WIRE 336 64 336 0
FLAG 336 0 vee
WIRE 336 160 336 224
FLAG 336 224 0
SYMBOL bv 576 64 R0
SYMATTR InstName B_envin
SYMATTR Value V = abs(v(v_osc_drive))
WIRE 592 64 592 0
FLAG 592 0 n_envin
WIRE 592 144 592 208
FLAG 592 208 0
SYMBOL res 832 64 R0
SYMATTR InstName R_envlpf
SYMATTR Value 30k
WIRE 848 80 848 16
FLAG 848 16 n_envin
WIRE 848 160 848 224
FLAG 848 224 n_env_lpf
SYMBOL cap 1088 64 R0
SYMATTR InstName C_envlpf
SYMATTR Value 1u
WIRE 1104 64 1104 0
FLAG 1104 0 n_env_lpf
WIRE 1104 128 1104 192
FLAG 1104 192 0
SYMBOL bv 1344 64 R0
SYMATTR InstName B_vcc_buf
SYMATTR Value V = (time < 0.500) ? 9.0 : max(v(n_env_lpf) * 1.6, 1.5)
WIRE 1360 64 1360 0
FLAG 1360 0 vcc_buf
WIRE 1360 144 1360 208
FLAG 1360 208 0
SYMBOL bv 1600 64 R0
SYMATTR InstName B_vee_buf
SYMATTR Value V = (time < 0.500) ? -9.0 : -max(v(n_env_lpf) * 1.6, 1.5)
WIRE 1616 64 1616 0
FLAG 1616 0 vee_buf
WIRE 1616 144 1616 208
FLAG 1616 208 0
SYMBOL res 1856 64 R0
SYMATTR InstName R1
SYMATTR Value 10000
WIRE 1872 80 1872 16
FLAG 1872 16 v_osc
WIRE 1872 160 1872 224
FLAG 1872 224 ns
SYMBOL cap 64 320 R0
SYMATTR InstName C1
SYMATTR Value 1.591500e-08
WIRE 80 320 80 256
FLAG 80 256 ns
WIRE 80 384 80 448
FLAG 80 448 np
SYMBOL res 320 320 R0
SYMATTR InstName R2
SYMATTR Value 10000
WIRE 336 336 336 272
FLAG 336 272 np
WIRE 336 416 336 480
FLAG 336 480 0
SYMBOL cap 576 320 R0
SYMATTR InstName C2
SYMATTR Value 1.591500e-08
WIRE 592 320 592 256
FLAG 592 256 np
WIRE 592 384 592 448
FLAG 592 448 0
SYMBOL res 832 320 R0
SYMATTR InstName Rg
SYMATTR Value 10k
WIRE 848 336 848 272
FLAG 848 272 nn
WIRE 848 416 848 480
FLAG 848 480 0
SYMBOL res 1088 320 R0
SYMATTR InstName Rfa
SYMATTR Value 10k
WIRE 1104 336 1104 272
FLAG 1104 272 nn
WIRE 1104 416 1104 480
FLAG 1104 480 fb
SYMBOL res 1344 320 R0
SYMATTR InstName Rfb
SYMATTR Value 12k
WIRE 1360 336 1360 272
FLAG 1360 272 fb
WIRE 1360 416 1360 480
FLAG 1360 480 v_osc
SYMBOL npn 1600 320 R0
SYMATTR InstName Q1
SYMATTR Value Q2N3904
WIRE 1664 336 1664 272
FLAG 1664 272 fb
WIRE 1616 384 1552 384
FLAG 1552 384 b1
WIRE 1664 416 1664 480
FLAG 1664 480 v_osc
SYMBOL npn 1856 320 R0
SYMATTR InstName Q2
SYMATTR Value Q2N3904
WIRE 1920 336 1920 272
FLAG 1920 272 v_osc
WIRE 1872 384 1808 384
FLAG 1808 384 b2
WIRE 1920 416 1920 480
FLAG 1920 480 fb
SYMBOL res 64 576 R0
SYMATTR InstName Rtop1
SYMATTR Value 120000
WIRE 80 592 80 528
FLAG 80 528 fb
WIRE 80 672 80 736
FLAG 80 736 b1
SYMBOL res 320 576 R0
SYMATTR InstName Rbot1
SYMATTR Value 120000
WIRE 336 592 336 528
FLAG 336 528 b1
WIRE 336 672 336 736
FLAG 336 736 v_osc
SYMBOL res 576 576 R0
SYMATTR InstName Rtop2
SYMATTR Value 120000
WIRE 592 592 592 528
FLAG 592 528 v_osc
WIRE 592 672 592 736
FLAG 592 736 b2
SYMBOL res 832 576 R0
SYMATTR InstName Rbot2
SYMATTR Value 120000
WIRE 848 592 848 528
FLAG 848 528 b2
WIRE 848 672 848 736
FLAG 848 736 fb
SYMBOL opamp2 1088 576 R0
SYMATTR InstName XU_osc
SYMATTR Value uopamp_lvl2
SYMATTR Value2 Avol=10meg GBW=4.5meg Rin=100g Rout=10 Iq=600u Ilimit=1 Vrail=100m Vmax=40 Vos=2.500000e-03
WIRE 1088 608 1024 608
FLAG 1024 608 np
WIRE 1088 640 1024 640
FLAG 1024 640 nn
WIRE 1120 576 1120 512
FLAG 1120 512 vcc
WIRE 1120 672 1120 736
FLAG 1120 736 vee
WIRE 1184 624 1248 624
FLAG 1248 624 v_osc
SYMBOL res 1344 576 R0
SYMATTR InstName R_ap1
SYMATTR Value 1590
WIRE 1360 592 1360 528
FLAG 1360 528 v_drv_atten
WIRE 1360 672 1360 736
FLAG 1360 736 n_ap_minus
SYMBOL res 1600 576 R0
SYMATTR InstName R_ap2
SYMATTR Value 1590
WIRE 1616 592 1616 528
FLAG 1616 528 v_ap
WIRE 1616 672 1616 736
FLAG 1616 736 n_ap_minus
SYMBOL njf 1856 576 R0
SYMATTR InstName J_var
SYMATTR Value J2N5457
WIRE 1888 576 1888 512
FLAG 1888 512 v_drv_atten
WIRE 1856 640 1792 640
FLAG 1792 640 v_ctl
WIRE 1888 672 1888 736
FLAG 1888 736 n_ap_plus
SYMBOL cap 64 832 R0
SYMATTR InstName C_ap
SYMATTR Value 1.000000e-07
WIRE 80 832 80 768
FLAG 80 768 n_ap_plus
WIRE 80 896 80 960
FLAG 80 960 0
SYMBOL opamp2 320 832 R0
SYMATTR InstName XU_ap
SYMATTR Value uopamp_lvl2
SYMATTR Value2 Avol=10meg GBW=4.5meg Rin=100g Rout=10 Iq=600u Ilimit=1 Vrail=100m Vmax=40 Vos=2.500000e-03
WIRE 320 864 256 864
FLAG 256 864 n_ap_plus
WIRE 320 896 256 896
FLAG 256 896 n_ap_minus
WIRE 352 832 352 768
FLAG 352 768 vcc
WIRE 352 928 352 992
FLAG 352 992 vee
WIRE 416 880 480 880
FLAG 480 880 v_ap
SYMBOL bi 576 832 R0
SYMATTR InstName B_fil
SYMATTR Value I = (V(v_top) - V(v_bot)) / (R_amb * (V(T_node)/T_amb)^fil_exp)
WIRE 592 832 592 768
FLAG 592 768 v_top
WIRE 592 912 592 976
FLAG 592 976 v_bot
SYMBOL bi 832 832 R0
SYMATTR InstName B_pelec
SYMATTR Value I = (V(v_top)-V(v_bot))*(V(v_top)-V(v_bot)) / (R_amb * (V(T_node)/T_amb)^fil_exp)
WIRE 848 832 848 768
FLAG 848 768 0
WIRE 848 912 848 976
FLAG 848 976 T_node
SYMBOL bi 1088 832 R0
SYMATTR InstName B_prad
SYMATTR Value I = sigma_eps_A * (V(T_node)^4 - T_amb^4)
WIRE 1104 832 1104 768
FLAG 1104 768 T_node
WIRE 1104 912 1104 976
FLAG 1104 976 0
SYMBOL cap 1344 832 R0
SYMATTR InstName C_th
SYMATTR Value {C_th}
WIRE 1360 832 1360 768
FLAG 1360 768 T_node
WIRE 1360 896 1360 960
FLAG 1360 960 0
SYMBOL bv 1600 832 R0
SYMATTR InstName B_R
SYMATTR Value V = R_amb * (V(T_node)/T_amb)^fil_exp
WIRE 1616 832 1616 768
FLAG 1616 768 r_fil
WIRE 1616 912 1616 976
FLAG 1616 976 0
SYMBOL opamp2 1856 832 R0
SYMATTR InstName X_filament
SYMATTR Value uopamp_lvl2
WIRE 1856 864 1792 864
FLAG 1792 864 v_osc_drive
WIRE 1856 896 1792 896
FLAG 1792 896 node_A
WIRE 1888 832 1888 768
FLAG 1888 768 T_node
WIRE 1888 928 1888 992
FLAG 1888 992 r_fil
WIRE 1952 880 2016 880
FLAG 2016 880 filament
SYMBOL res 64 1088 R0
SYMATTR InstName R_sen
SYMATTR Value 5
WIRE 80 1104 80 1040
FLAG 80 1040 node_A
WIRE 80 1184 80 1248
FLAG 80 1248 v_ap_drive
SYMBOL res 320 1088 R0
SYMATTR InstName R_top_ref
SYMATTR Value 2000
WIRE 336 1104 336 1040
FLAG 336 1040 v_osc_drive
WIRE 336 1184 336 1248
FLAG 336 1248 node_B
SYMBOL res 576 1088 R0
SYMATTR InstName R_bot_ref
SYMATTR Value 500
WIRE 592 1104 592 1040
FLAG 592 1040 node_B
WIRE 592 1184 592 1248
FLAG 592 1248 v_ap_drive
SYMBOL res 832 1088 R0
SYMATTR InstName R_a1
SYMATTR Value 1e+06
WIRE 848 1104 848 1040
FLAG 848 1040 node_A
WIRE 848 1184 848 1248
FLAG 848 1248 n_diff_minus
SYMBOL res 1088 1088 R0
SYMATTR InstName R_a2
SYMATTR Value 1e+06
WIRE 1104 1104 1104 1040
FLAG 1104 1040 n_diff_minus
WIRE 1104 1184 1104 1248
FLAG 1104 1248 n_diff
SYMBOL res 1344 1088 R0
SYMATTR InstName R_b1
SYMATTR Value 1e+06
WIRE 1360 1104 1360 1040
FLAG 1360 1040 node_B
WIRE 1360 1184 1360 1248
FLAG 1360 1248 n_diff_plus
SYMBOL res 1600 1088 R0
SYMATTR InstName R_b2
SYMATTR Value 1e+06
WIRE 1616 1104 1616 1040
FLAG 1616 1040 n_diff_plus
WIRE 1616 1184 1616 1248
FLAG 1616 1248 0
SYMBOL opamp2 1856 1088 R0
SYMATTR InstName XU_diff
SYMATTR Value uopamp_lvl2
SYMATTR Value2 Avol=10meg GBW=4.5meg Rin=100g Rout=10 Iq=600u Ilimit=1 Vrail=100m Vmax=40 Vos=2.500000e-03
WIRE 1856 1120 1792 1120
FLAG 1792 1120 n_diff_plus
WIRE 1856 1152 1792 1152
FLAG 1792 1152 n_diff_minus
WIRE 1888 1088 1888 1024
FLAG 1888 1024 vcc
WIRE 1888 1184 1888 1248
FLAG 1888 1248 vee
WIRE 1952 1136 2016 1136
FLAG 2016 1136 n_diff
SYMBOL opamp2 64 1344 R0
SYMATTR InstName XU_cmp
SYMATTR Value uopamp_lvl2
SYMATTR Value2 Avol=10meg GBW=4.5meg Rin=100g Rout=10 Iq=600u Ilimit=1 Vrail=100m Vmax=40 Vos=2.500000e-03
WIRE 64 1376 0 1376
FLAG 0 1376 v_osc
WIRE 64 1408 0 1408
FLAG 0 1408 0
WIRE 96 1344 96 1280
FLAG 96 1280 vcc
WIRE 96 1440 96 1504
FLAG 96 1504 vee
WIRE 160 1392 224 1392
FLAG 224 1392 n_cmp
SYMBOL sw 320 1344 R0
SYMATTR InstName S1
SYMATTR Value swMod
WIRE 288 1328 288 1264
FLAG 288 1264 n_diff
WIRE 352 1328 352 1264
FLAG 352 1264 vplus
WIRE 288 1360 288 1424
FLAG 288 1424 n_cmp
WIRE 352 1360 352 1424
FLAG 352 1424 0
SYMBOL sw 576 1344 R0
SYMATTR InstName S2
SYMATTR Value swMod
WIRE 544 1328 544 1264
FLAG 544 1264 0
WIRE 608 1328 608 1264
FLAG 608 1264 vplus
WIRE 544 1360 544 1424
FLAG 544 1424 0
WIRE 608 1360 608 1424
FLAG 608 1424 n_cmp
SYMBOL res 832 1344 R0
SYMATTR InstName R_bias
SYMATTR Value 1Meg
WIRE 848 1360 848 1296
FLAG 848 1296 vplus
WIRE 848 1440 848 1504
FLAG 848 1504 0
SYMBOL res 1088 1344 R0
SYMATTR InstName R_din
SYMATTR Value 10k
WIRE 1104 1360 1104 1296
FLAG 1104 1296 n_diff
WIRE 1104 1440 1104 1504
FLAG 1104 1504 n_dem_minus
SYMBOL res 1344 1344 R0
SYMATTR InstName R_dfb
SYMATTR Value 10k
WIRE 1360 1360 1360 1296
FLAG 1360 1296 n_demout
WIRE 1360 1440 1360 1504
FLAG 1360 1504 n_dem_minus
SYMBOL opamp2 1600 1344 R0
SYMATTR InstName XU_dem
SYMATTR Value uopamp_lvl2
SYMATTR Value2 Avol=10meg GBW=4.5meg Rin=100g Rout=10 Iq=600u Ilimit=1 Vrail=100m Vmax=40 Vos=5.000000e-06
WIRE 1600 1376 1536 1376
FLAG 1536 1376 vplus
WIRE 1600 1408 1536 1408
FLAG 1536 1408 n_dem_minus
WIRE 1632 1344 1632 1280
FLAG 1632 1280 vcc
WIRE 1632 1440 1632 1504
FLAG 1632 1504 vee
WIRE 1696 1392 1760 1392
FLAG 1760 1392 n_demout
SYMBOL res 1856 1344 R0
SYMATTR InstName R_intin
SYMATTR Value 30000
WIRE 1872 1360 1872 1296
FLAG 1872 1296 n_demout
WIRE 1872 1440 1872 1504
FLAG 1872 1504 n_int_minus
SYMBOL cap 64 1600 R0
SYMATTR InstName C_intin
SYMATTR Value 1.000000e-09
WIRE 80 1600 80 1536
FLAG 80 1536 n_demout
WIRE 80 1664 80 1728
FLAG 80 1728 n_int_minus
SYMBOL res 320 1600 R0
SYMATTR InstName R_intfb
SYMATTR Value 300000
WIRE 336 1616 336 1552
FLAG 336 1552 n_int_pidp
WIRE 336 1696 336 1760
FLAG 336 1760 v_int_out
SYMBOL cap 576 1600 R0
SYMATTR InstName C_intfb
SYMATTR Value 3.183099e-07
WIRE 592 1600 592 1536
FLAG 592 1536 n_int_minus
WIRE 592 1664 592 1728
FLAG 592 1728 n_int_pidp
SYMBOL cap 832 1600 R0
SYMATTR InstName C_hf
SYMATTR Value 1.000000e-08
WIRE 848 1600 848 1536
FLAG 848 1536 n_int_pidp
WIRE 848 1664 848 1728
FLAG 848 1728 v_int_out
SYMBOL opamp2 1088 1600 R0
SYMATTR InstName XU_int
SYMATTR Value uopamp_lvl2
SYMATTR Value2 Avol=10meg GBW=4.5meg Rin=100g Rout=10 Iq=600u Ilimit=1 Vrail=100m Vmax=40 Vos=5.000000e-06
WIRE 1088 1632 1024 1632
FLAG 1024 1632 0
WIRE 1088 1664 1024 1664
FLAG 1024 1664 n_int_minus
WIRE 1120 1600 1120 1536
FLAG 1120 1536 vcc
WIRE 1120 1696 1120 1760
FLAG 1120 1760 vee
WIRE 1184 1648 1248 1648
FLAG 1248 1648 v_int_out
SYMBOL voltage 1344 1600 R0
SYMATTR InstName V_clamp_hi
SYMATTR Value 1.8
WIRE 1360 1600 1360 1536
FLAG 1360 1536 v_clamp_hi
WIRE 1360 1696 1360 1760
FLAG 1360 1760 0
SYMBOL voltage 1600 1600 R0
SYMATTR InstName V_clamp_lo
SYMATTR Value 0.3
WIRE 1616 1600 1616 1536
FLAG 1616 1536 v_clamp_lo
WIRE 1616 1696 1616 1760
FLAG 1616 1760 0
SYMBOL diode 1856 1600 R0
SYMATTR InstName D_aw_hi
SYMATTR Value Dclamp
WIRE 1872 1600 1872 1536
FLAG 1872 1536 v_int_out
WIRE 1872 1664 1872 1728
FLAG 1872 1728 v_clamp_hi
SYMBOL diode 64 1856 R0
SYMATTR InstName D_aw_lo
SYMATTR Value Dclamp
WIRE 80 1856 80 1792
FLAG 80 1792 v_clamp_lo
WIRE 80 1920 80 1984
FLAG 80 1984 v_int_out
SYMBOL res 320 1856 R0
SYMATTR InstName R_inv1
SYMATTR Value 100k
WIRE 336 1872 336 1808
FLAG 336 1808 v_int_out
WIRE 336 1952 336 2016
FLAG 336 2016 n_inv_minus
SYMBOL res 576 1856 R0
SYMATTR InstName R_inv2
SYMATTR Value 100k
WIRE 592 1872 592 1808
FLAG 592 1808 n_inv_minus
WIRE 592 1952 592 2016
FLAG 592 2016 v_ctl
SYMBOL res 832 1856 R0
SYMATTR InstName R_btd
SYMATTR Value 100k
WIRE 848 1872 848 1808
FLAG 848 1808 v_drv_atten
WIRE 848 1952 848 2016
FLAG 848 2016 n_btd_mid
SYMBOL cap 1088 1856 R0
SYMATTR InstName C_btd
SYMATTR Value 10u
WIRE 1104 1856 1104 1792
FLAG 1104 1792 n_btd_mid
WIRE 1104 1920 1104 1984
FLAG 1104 1984 n_inv_plus
SYMBOL res 1344 1856 R0
SYMATTR InstName R_bts
SYMATTR Value 100k
WIRE 1360 1872 1360 1808
FLAG 1360 1808 n_ap_plus
WIRE 1360 1952 1360 2016
FLAG 1360 2016 n_bts_mid
SYMBOL cap 1600 1856 R0
SYMATTR InstName C_bts
SYMATTR Value 10u
WIRE 1616 1856 1616 1792
FLAG 1616 1792 n_bts_mid
WIRE 1616 1920 1616 1984
FLAG 1616 1984 n_inv_plus
SYMBOL res 1856 1856 R0
SYMATTR InstName R_btp
SYMATTR Value 18k
WIRE 1872 1872 1872 1808
FLAG 1872 1808 n_inv_plus
WIRE 1872 1952 1872 2016
FLAG 1872 2016 0
SYMBOL opamp2 64 2112 R0
SYMATTR InstName XU_inv
SYMATTR Value uopamp_lvl2
SYMATTR Value2 Avol=10meg GBW=4.5meg Rin=100g Rout=10 Iq=600u Ilimit=1 Vrail=100m Vmax=40 Vos=2.500000e-03
WIRE 64 2144 0 2144
FLAG 0 2144 n_inv_plus
WIRE 64 2176 0 2176
FLAG 0 2176 n_inv_minus
WIRE 96 2112 96 2048
FLAG 96 2048 vcc
WIRE 96 2208 96 2272
FLAG 96 2272 vee
WIRE 160 2160 224 2160
FLAG 224 2160 v_ctl
SYMBOL res 320 2112 R0
SYMATTR InstName R_atten_top
SYMATTR Value 56k
WIRE 336 2128 336 2064
FLAG 336 2064 v_osc
WIRE 336 2208 336 2272
FLAG 336 2272 v_atten_input
SYMBOL res 576 2112 R0
SYMATTR InstName R_atten_bot
SYMATTR Value 9.1k
WIRE 592 2128 592 2064
FLAG 592 2064 v_atten_input
WIRE 592 2208 592 2272
FLAG 592 2272 0
SYMBOL opamp2 832 2112 R0
SYMATTR InstName XU_buf0
SYMATTR Value uopamp_lvl2
SYMATTR Value2 Avol=10meg GBW=4.5meg Rin=100g Rout=10 Iq=600u Ilimit=1 Vrail=100m Vmax=40 Vos=2.500000e-03
WIRE 832 2144 768 2144
FLAG 768 2144 v_atten_input
WIRE 832 2176 768 2176
FLAG 768 2176 v_drv_atten
WIRE 864 2112 864 2048
FLAG 864 2048 vcc
WIRE 864 2208 864 2272
FLAG 864 2272 vee
WIRE 928 2160 992 2160
FLAG 992 2160 v_drv_atten
SYMBOL opamp2 1088 2112 R0
SYMATTR InstName XU_buf_osc
SYMATTR Value uopamp_lvl2
SYMATTR Value2 Avol=10meg GBW=4.5meg Rin=100g Rout=10 Iq=600u Ilimit=1 Vrail=100m Vmax=40 Vos=2.500000e-03
WIRE 1088 2144 1024 2144
FLAG 1024 2144 v_drv_atten
WIRE 1088 2176 1024 2176
FLAG 1024 2176 n_buf_osc_fb
WIRE 1120 2112 1120 2048
FLAG 1120 2048 vcc_buf
WIRE 1120 2208 1120 2272
FLAG 1120 2272 vee_buf
WIRE 1184 2160 1248 2160
FLAG 1248 2160 n_buf_osc_out
SYMBOL res 1344 2112 R0
SYMATTR InstName R_buf1_fb1
SYMATTR Value 1000
WIRE 1360 2128 1360 2064
FLAG 1360 2064 v_osc_drive
WIRE 1360 2208 1360 2272
FLAG 1360 2272 n_buf_osc_fb
SYMBOL res 1600 2112 R0
SYMATTR InstName R_buf1_fb2
SYMATTR Value 1k
WIRE 1616 2128 1616 2064
FLAG 1616 2064 n_buf_osc_fb
WIRE 1616 2208 1616 2272
FLAG 1616 2272 0
SYMBOL res 1856 2112 R0
SYMATTR InstName R_obb_top_a
SYMATTR Value 150
WIRE 1872 2128 1872 2064
FLAG 1872 2064 vcc_buf
WIRE 1872 2208 1872 2272
FLAG 1872 2272 mid_obb_top
SYMBOL res 64 2368 R0
SYMATTR InstName R_obb_top_b
SYMATTR Value 150
WIRE 80 2384 80 2320
FLAG 80 2320 mid_obb_top
WIRE 80 2464 80 2528
FLAG 80 2528 q_o_bn
SYMBOL cap 320 2368 R0
SYMATTR InstName C_obb_top
SYMATTR Value 4.7u
WIRE 336 2368 336 2304
FLAG 336 2304 mid_obb_top
WIRE 336 2432 336 2496
FLAG 336 2496 v_osc_drive
SYMBOL diode 576 2368 R0
SYMATTR InstName D_obb_top
SYMATTR Value Dbias
WIRE 592 2368 592 2304
FLAG 592 2304 q_o_bn
WIRE 592 2432 592 2496
FLAG 592 2496 n_buf_osc_out
SYMBOL diode 832 2368 R0
SYMATTR InstName D_obb_bot
SYMATTR Value Dbias
WIRE 848 2368 848 2304
FLAG 848 2304 n_buf_osc_out
WIRE 848 2432 848 2496
FLAG 848 2496 q_o_bp
SYMBOL res 1088 2368 R0
SYMATTR InstName R_obb_bot_b
SYMATTR Value 150
WIRE 1104 2384 1104 2320
FLAG 1104 2320 q_o_bp
WIRE 1104 2464 1104 2528
FLAG 1104 2528 mid_obb_bot
SYMBOL res 1344 2368 R0
SYMATTR InstName R_obb_bot_a
SYMATTR Value 150
WIRE 1360 2384 1360 2320
FLAG 1360 2320 mid_obb_bot
WIRE 1360 2464 1360 2528
FLAG 1360 2528 vee_buf
SYMBOL cap 1600 2368 R0
SYMATTR InstName C_obb_bot
SYMATTR Value 4.7u
WIRE 1616 2368 1616 2304
FLAG 1616 2304 mid_obb_bot
WIRE 1616 2432 1616 2496
FLAG 1616 2496 v_osc_drive
SYMBOL npn 1856 2368 R0
SYMATTR InstName Q_o_npn
SYMATTR Value QBC337
WIRE 1920 2384 1920 2320
FLAG 1920 2320 vcc_buf
WIRE 1872 2432 1808 2432
FLAG 1808 2432 q_o_bn
WIRE 1920 2464 1920 2528
FLAG 1920 2528 v_osc_drive
SYMBOL pnp 64 2624 R0
SYMATTR InstName Q_o_pnp
SYMATTR Value QBC327
WIRE 128 2640 128 2576
FLAG 128 2576 vee_buf
WIRE 80 2688 16 2688
FLAG 16 2688 q_o_bp
WIRE 128 2720 128 2784
FLAG 128 2784 v_osc_drive
SYMBOL cap 320 2624 R0
SYMATTR InstName C_buf2_dcblock
SYMATTR Value 100n
WIRE 336 2624 336 2560
FLAG 336 2560 v_ap
WIRE 336 2688 336 2752
FLAG 336 2752 n_buf2_ac
SYMBOL res 576 2624 R0
SYMATTR InstName R_buf2_dcref
SYMATTR Value 100k
WIRE 592 2640 592 2576
FLAG 592 2576 n_buf2_ac
WIRE 592 2720 592 2784
FLAG 592 2784 0
SYMBOL opamp2 832 2624 R0
SYMATTR InstName XU_buf_ap
SYMATTR Value uopamp_lvl2
SYMATTR Value2 Avol=10meg GBW=4.5meg Rin=100g Rout=10 Iq=600u Ilimit=1 Vrail=100m Vmax=40 Vos=2.500000e-03
WIRE 832 2656 768 2656
FLAG 768 2656 n_buf2_ac
WIRE 832 2688 768 2688
FLAG 768 2688 n_buf_ap_fb
WIRE 864 2624 864 2560
FLAG 864 2560 vcc_buf
WIRE 864 2720 864 2784
FLAG 864 2784 vee_buf
WIRE 928 2672 992 2672
FLAG 992 2672 n_buf_ap_out
SYMBOL res 1088 2624 R0
SYMATTR InstName R_buf2_fb1
SYMATTR Value 1000
WIRE 1104 2640 1104 2576
FLAG 1104 2576 v_ap_drive
WIRE 1104 2720 1104 2784
FLAG 1104 2784 n_buf_ap_fb
SYMBOL res 1344 2624 R0
SYMATTR InstName R_buf2_fb2
SYMATTR Value 1k
WIRE 1360 2640 1360 2576
FLAG 1360 2576 n_buf_ap_fb
WIRE 1360 2720 1360 2784
FLAG 1360 2784 0
SYMBOL res 1600 2624 R0
SYMATTR InstName R_abb_top_a
SYMATTR Value 150
WIRE 1616 2640 1616 2576
FLAG 1616 2576 vcc_buf
WIRE 1616 2720 1616 2784
FLAG 1616 2784 mid_abb_top
SYMBOL res 1856 2624 R0
SYMATTR InstName R_abb_top_b
SYMATTR Value 150
WIRE 1872 2640 1872 2576
FLAG 1872 2576 mid_abb_top
WIRE 1872 2720 1872 2784
FLAG 1872 2784 q_a_bn
SYMBOL cap 64 2880 R0
SYMATTR InstName C_abb_top
SYMATTR Value 4.7u
WIRE 80 2880 80 2816
FLAG 80 2816 mid_abb_top
WIRE 80 2944 80 3008
FLAG 80 3008 v_ap_drive
SYMBOL diode 320 2880 R0
SYMATTR InstName D_abb_top
SYMATTR Value Dbias
WIRE 336 2880 336 2816
FLAG 336 2816 q_a_bn
WIRE 336 2944 336 3008
FLAG 336 3008 n_buf_ap_out
SYMBOL diode 576 2880 R0
SYMATTR InstName D_abb_bot
SYMATTR Value Dbias
WIRE 592 2880 592 2816
FLAG 592 2816 n_buf_ap_out
WIRE 592 2944 592 3008
FLAG 592 3008 q_a_bp
SYMBOL res 832 2880 R0
SYMATTR InstName R_abb_bot_b
SYMATTR Value 150
WIRE 848 2896 848 2832
FLAG 848 2832 q_a_bp
WIRE 848 2976 848 3040
FLAG 848 3040 mid_abb_bot
SYMBOL res 1088 2880 R0
SYMATTR InstName R_abb_bot_a
SYMATTR Value 150
WIRE 1104 2896 1104 2832
FLAG 1104 2832 mid_abb_bot
WIRE 1104 2976 1104 3040
FLAG 1104 3040 vee_buf
SYMBOL cap 1344 2880 R0
SYMATTR InstName C_abb_bot
SYMATTR Value 4.7u
WIRE 1360 2880 1360 2816
FLAG 1360 2816 mid_abb_bot
WIRE 1360 2944 1360 3008
FLAG 1360 3008 v_ap_drive
SYMBOL npn 1600 2880 R0
SYMATTR InstName Q_a_npn
SYMATTR Value QBC337
WIRE 1664 2896 1664 2832
FLAG 1664 2832 vcc_buf
WIRE 1616 2944 1552 2944
FLAG 1552 2944 q_a_bn
WIRE 1664 2976 1664 3040
FLAG 1664 3040 v_ap_drive
SYMBOL pnp 1856 2880 R0
SYMATTR InstName Q_a_pnp
SYMATTR Value QBC327
WIRE 1920 2896 1920 2832
FLAG 1920 2832 vee_buf
WIRE 1872 2944 1808 2944
FLAG 1808 2944 q_a_bp
WIRE 1920 2976 1920 3040
FLAG 1920 3040 v_ap_drive
TEXT 64 3584 Left 2 !.include /home/user/smps-design-tools/ngspice_examples/uopamp.lib\n.param T_amb=300.0\n.param R_amb=6.16407\n.param sigma_eps_A=1.245330e-13\n.param C_th=2.550436e-05\n.param fil_exp=1.2000\n.model J2N5457 NJF(Vto=-2.5000 Beta=1.0000e-03 Lambda=0)\n.subckt filament v_top v_bot T_node r_fil\n.ends filament\n.model swMod SW(VT=0 VH=0.1 RON=10 ROFF=1G)\n.model Dclamp D(Is=2.52n Rs=0.568 N=1.752 Cjo=4p M=0.4 tt=20n)\n.model Dbias  D(IS=2.52n N=1.752 RS=0.568 BV=80 IBV=0.1m CJO=4p)\n.model QBC337 NPN(IS=1e-14 BF=300 BR=10 RB=10 RC=0.5 RE=0.1 IKF=0.8 CJC=11p CJE=20p VAF=100)\n.model QBC327 PNP(IS=1e-14 BF=300 BR=10 RB=10 RC=0.5 RE=0.1 IKF=0.8 CJC=11p CJE=20p VAF=100)\n.model Q2N3904 NPN(IS=6.734f XTI=3 EG=1.11 VAF=74.03 BF=416.4 NE=1.259 ISE=6.734f IKF=66.78m XTB=1.5 BR=.7371 NC=2 ISC=0 IKR=0 RC=1 CJC=3.638p MJC=.3085 VJC=.75 FC=.5 CJE=4.493p MJE=.2593 VJE=.75 TR=239.5n TF=301.2p ITF=.4 VTF=4 XTF=2 RB=10)\n.options reltol=1e-4 abstol=1p chgtol=1f\n.tran 10u 5.0 UIC\n.control\n* run\n* wrdata /home/user/smps-design-tools/ngspice_examples/_unused.data v(v_osc_drive) v(v_ap_drive) v(node_A) v(node_B) v(n_diff) v(n_demout) v(v_ctl) v(v_int_out) v(T_node) v(r_fil)\n.endcontrol\n.end
