Version 4
SHEET 1 8000 8000
TEXT 64 16 Left 4 ;VFD-filament regulator for IV-6 (tube=iv6)
SYMBOL voltage 64 64 R0
SYMATTR InstName Vcc
SYMATTR Value 9.0
WIRE 80 64 80 0
FLAG 80 0 vcc
WIRE 80 160 80 224
FLAG 80 224 0
SYMBOL voltage 320 64 R0
SYMATTR InstName Vee
SYMATTR Value -9.0
WIRE 336 64 336 0
FLAG 336 0 vee
WIRE 336 160 336 224
FLAG 336 224 0
SYMBOL res 576 64 R0
SYMATTR InstName R1
SYMATTR Value 10000
WIRE 592 80 592 16
FLAG 592 16 v_osc
WIRE 592 160 592 224
FLAG 592 224 ns
SYMBOL cap 832 64 R0
SYMATTR InstName C1
SYMATTR Value 1.591500e-08
WIRE 848 64 848 0
FLAG 848 0 ns
WIRE 848 128 848 192
FLAG 848 192 np
SYMBOL res 1088 64 R0
SYMATTR InstName R2
SYMATTR Value 10000
WIRE 1104 80 1104 16
FLAG 1104 16 np
WIRE 1104 160 1104 224
FLAG 1104 224 0
SYMBOL cap 1344 64 R0
SYMATTR InstName C2
SYMATTR Value 1.591500e-08
WIRE 1360 64 1360 0
FLAG 1360 0 np
WIRE 1360 128 1360 192
FLAG 1360 192 0
SYMBOL res 1600 64 R0
SYMATTR InstName Rg
SYMATTR Value 10k
WIRE 1616 80 1616 16
FLAG 1616 16 nn
WIRE 1616 160 1616 224
FLAG 1616 224 0
SYMBOL res 1856 64 R0
SYMATTR InstName Rfa
SYMATTR Value 10k
WIRE 1872 80 1872 16
FLAG 1872 16 nn
WIRE 1872 160 1872 224
FLAG 1872 224 fb
SYMBOL res 64 320 R0
SYMATTR InstName Rfb
SYMATTR Value 12k
WIRE 80 336 80 272
FLAG 80 272 fb
WIRE 80 416 80 480
FLAG 80 480 v_osc
SYMBOL npn 320 320 R0
SYMATTR InstName Q1
SYMATTR Value Q2N3904
WIRE 384 336 384 272
FLAG 384 272 fb
WIRE 336 384 272 384
FLAG 272 384 b1
WIRE 384 416 384 480
FLAG 384 480 v_osc
SYMBOL npn 576 320 R0
SYMATTR InstName Q2
SYMATTR Value Q2N3904
WIRE 640 336 640 272
FLAG 640 272 v_osc
WIRE 592 384 528 384
FLAG 528 384 b2
WIRE 640 416 640 480
FLAG 640 480 fb
SYMBOL res 832 320 R0
SYMATTR InstName Rtop1
SYMATTR Value 120000
WIRE 848 336 848 272
FLAG 848 272 fb
WIRE 848 416 848 480
FLAG 848 480 b1
SYMBOL res 1088 320 R0
SYMATTR InstName Rbot1
SYMATTR Value 120000
WIRE 1104 336 1104 272
FLAG 1104 272 b1
WIRE 1104 416 1104 480
FLAG 1104 480 v_osc
SYMBOL res 1344 320 R0
SYMATTR InstName Rtop2
SYMATTR Value 120000
WIRE 1360 336 1360 272
FLAG 1360 272 v_osc
WIRE 1360 416 1360 480
FLAG 1360 480 b2
SYMBOL res 1600 320 R0
SYMATTR InstName Rbot2
SYMATTR Value 120000
WIRE 1616 336 1616 272
FLAG 1616 272 b2
WIRE 1616 416 1616 480
FLAG 1616 480 fb
SYMBOL opamp2 1856 320 R0
SYMATTR InstName XU_osc
SYMATTR Value uopamp_lvl2
SYMATTR Value2 Avol=10meg GBW=4.5meg Rin=100g Rout=10 Iq=600u Ilimit=1 Vrail=100m Vmax=40 Vos=2.500000e-03
WIRE 1856 352 1792 352
FLAG 1792 352 np
WIRE 1856 384 1792 384
FLAG 1792 384 nn
WIRE 1888 320 1888 256
FLAG 1888 256 vcc
WIRE 1888 416 1888 480
FLAG 1888 480 vee
WIRE 1952 368 2016 368
FLAG 2016 368 v_osc
SYMBOL res 64 576 R0
SYMATTR InstName R_ap1
SYMATTR Value 1590
WIRE 80 592 80 528
FLAG 80 528 v_drv_atten
WIRE 80 672 80 736
FLAG 80 736 n_ap_minus
SYMBOL res 320 576 R0
SYMATTR InstName R_ap2
SYMATTR Value 1590
WIRE 336 592 336 528
FLAG 336 528 v_ap
WIRE 336 672 336 736
FLAG 336 736 n_ap_minus
SYMBOL njf 576 576 R0
SYMATTR InstName J_var
SYMATTR Value J2N5457
WIRE 608 576 608 512
FLAG 608 512 v_drv_atten
WIRE 576 640 512 640
FLAG 512 640 v_ctl
WIRE 608 672 608 736
FLAG 608 736 n_ap_plus
SYMBOL cap 832 576 R0
SYMATTR InstName C_ap
SYMATTR Value 1.000000e-07
WIRE 848 576 848 512
FLAG 848 512 n_ap_plus
WIRE 848 640 848 704
FLAG 848 704 0
SYMBOL opamp2 1088 576 R0
SYMATTR InstName XU_ap
SYMATTR Value uopamp_lvl2
SYMATTR Value2 Avol=10meg GBW=4.5meg Rin=100g Rout=10 Iq=600u Ilimit=1 Vrail=100m Vmax=40 Vos=2.500000e-03
WIRE 1088 608 1024 608
FLAG 1024 608 n_ap_plus
WIRE 1088 640 1024 640
FLAG 1024 640 n_ap_minus
WIRE 1120 576 1120 512
FLAG 1120 512 vcc
WIRE 1120 672 1120 736
FLAG 1120 736 vee
WIRE 1184 624 1248 624
FLAG 1248 624 v_ap
SYMBOL bi 1344 576 R0
SYMATTR InstName B_fil
SYMATTR Value I = (V(v_top) - V(v_bot)) / (R_amb * (V(T_node)/T_amb)^fil_exp)
WIRE 1360 576 1360 512
FLAG 1360 512 v_top
WIRE 1360 656 1360 720
FLAG 1360 720 v_bot
SYMBOL bi 1600 576 R0
SYMATTR InstName B_pelec
SYMATTR Value I = (V(v_top)-V(v_bot))*(V(v_top)-V(v_bot)) / (R_amb * (V(T_node)/T_amb)^fil_exp)
WIRE 1616 576 1616 512
FLAG 1616 512 0
WIRE 1616 656 1616 720
FLAG 1616 720 T_node
SYMBOL bi 1856 576 R0
SYMATTR InstName B_prad
SYMATTR Value I = sigma_eps_A * (V(T_node)^4 - T_amb^4)
WIRE 1872 576 1872 512
FLAG 1872 512 T_node
WIRE 1872 656 1872 720
FLAG 1872 720 0
SYMBOL cap 64 832 R0
SYMATTR InstName C_th
SYMATTR Value {C_th}
WIRE 80 832 80 768
FLAG 80 768 T_node
WIRE 80 896 80 960
FLAG 80 960 0
SYMBOL bv 320 832 R0
SYMATTR InstName B_R
SYMATTR Value V = R_amb * (V(T_node)/T_amb)^fil_exp
WIRE 336 832 336 768
FLAG 336 768 r_fil
WIRE 336 912 336 976
FLAG 336 976 0
SYMBOL opamp2 576 832 R0
SYMATTR InstName X_filament
SYMATTR Value uopamp_lvl2
WIRE 576 864 512 864
FLAG 512 864 v_osc_drive
WIRE 576 896 512 896
FLAG 512 896 node_A
WIRE 608 832 608 768
FLAG 608 768 T_node
WIRE 608 928 608 992
FLAG 608 992 r_fil
WIRE 672 880 736 880
FLAG 736 880 filament
SYMBOL res 832 832 R0
SYMATTR InstName R_sen
SYMATTR Value 5
WIRE 848 848 848 784
FLAG 848 784 node_A
WIRE 848 928 848 992
FLAG 848 992 v_ap_drive
SYMBOL res 1088 832 R0
SYMATTR InstName R_top_ref
SYMATTR Value 2000
WIRE 1104 848 1104 784
FLAG 1104 784 v_osc_drive
WIRE 1104 928 1104 992
FLAG 1104 992 node_B
SYMBOL res 1344 832 R0
SYMATTR InstName R_bot_ref
SYMATTR Value 500
WIRE 1360 848 1360 784
FLAG 1360 784 node_B
WIRE 1360 928 1360 992
FLAG 1360 992 v_ap_drive
SYMBOL res 1600 832 R0
SYMATTR InstName R_a1
SYMATTR Value 1e+06
WIRE 1616 848 1616 784
FLAG 1616 784 node_A
WIRE 1616 928 1616 992
FLAG 1616 992 n_diff_minus
SYMBOL res 1856 832 R0
SYMATTR InstName R_a2
SYMATTR Value 1e+06
WIRE 1872 848 1872 784
FLAG 1872 784 n_diff_minus
WIRE 1872 928 1872 992
FLAG 1872 992 n_diff
SYMBOL res 64 1088 R0
SYMATTR InstName R_b1
SYMATTR Value 1e+06
WIRE 80 1104 80 1040
FLAG 80 1040 node_B
WIRE 80 1184 80 1248
FLAG 80 1248 n_diff_plus
SYMBOL res 320 1088 R0
SYMATTR InstName R_b2
SYMATTR Value 1e+06
WIRE 336 1104 336 1040
FLAG 336 1040 n_diff_plus
WIRE 336 1184 336 1248
FLAG 336 1248 0
SYMBOL opamp2 576 1088 R0
SYMATTR InstName XU_diff
SYMATTR Value uopamp_lvl2
SYMATTR Value2 Avol=10meg GBW=4.5meg Rin=100g Rout=10 Iq=600u Ilimit=1 Vrail=100m Vmax=40 Vos=2.500000e-03
WIRE 576 1120 512 1120
FLAG 512 1120 n_diff_plus
WIRE 576 1152 512 1152
FLAG 512 1152 n_diff_minus
WIRE 608 1088 608 1024
FLAG 608 1024 vcc
WIRE 608 1184 608 1248
FLAG 608 1248 vee
WIRE 672 1136 736 1136
FLAG 736 1136 n_diff
SYMBOL opamp2 832 1088 R0
SYMATTR InstName XU_cmp
SYMATTR Value uopamp_lvl2
SYMATTR Value2 Avol=10meg GBW=4.5meg Rin=100g Rout=10 Iq=600u Ilimit=1 Vrail=100m Vmax=40 Vos=2.500000e-03
WIRE 832 1120 768 1120
FLAG 768 1120 v_osc
WIRE 832 1152 768 1152
FLAG 768 1152 0
WIRE 864 1088 864 1024
FLAG 864 1024 vcc
WIRE 864 1184 864 1248
FLAG 864 1248 vee
WIRE 928 1136 992 1136
FLAG 992 1136 n_cmp
SYMBOL sw 1088 1088 R0
SYMATTR InstName S1
SYMATTR Value swMod
WIRE 1056 1072 1056 1008
FLAG 1056 1008 n_diff
WIRE 1120 1072 1120 1008
FLAG 1120 1008 vplus
WIRE 1056 1104 1056 1168
FLAG 1056 1168 n_cmp
WIRE 1120 1104 1120 1168
FLAG 1120 1168 0
SYMBOL sw 1344 1088 R0
SYMATTR InstName S2
SYMATTR Value swMod
WIRE 1312 1072 1312 1008
FLAG 1312 1008 0
WIRE 1376 1072 1376 1008
FLAG 1376 1008 vplus
WIRE 1312 1104 1312 1168
FLAG 1312 1168 0
WIRE 1376 1104 1376 1168
FLAG 1376 1168 n_cmp
SYMBOL res 1600 1088 R0
SYMATTR InstName R_bias
SYMATTR Value 1Meg
WIRE 1616 1104 1616 1040
FLAG 1616 1040 vplus
WIRE 1616 1184 1616 1248
FLAG 1616 1248 0
SYMBOL res 1856 1088 R0
SYMATTR InstName R_din
SYMATTR Value 10k
WIRE 1872 1104 1872 1040
FLAG 1872 1040 n_diff
WIRE 1872 1184 1872 1248
FLAG 1872 1248 n_dem_minus
SYMBOL res 64 1344 R0
SYMATTR InstName R_dfb
SYMATTR Value 10k
WIRE 80 1360 80 1296
FLAG 80 1296 n_demout
WIRE 80 1440 80 1504
FLAG 80 1504 n_dem_minus
SYMBOL opamp2 320 1344 R0
SYMATTR InstName XU_dem
SYMATTR Value uopamp_lvl2
SYMATTR Value2 Avol=10meg GBW=4.5meg Rin=100g Rout=10 Iq=600u Ilimit=1 Vrail=100m Vmax=40 Vos=5.000000e-06
WIRE 320 1376 256 1376
FLAG 256 1376 vplus
WIRE 320 1408 256 1408
FLAG 256 1408 n_dem_minus
WIRE 352 1344 352 1280
FLAG 352 1280 vcc
WIRE 352 1440 352 1504
FLAG 352 1504 vee
WIRE 416 1392 480 1392
FLAG 480 1392 n_demout
SYMBOL res 576 1344 R0
SYMATTR InstName R_intin
SYMATTR Value 30000
WIRE 592 1360 592 1296
FLAG 592 1296 n_demout
WIRE 592 1440 592 1504
FLAG 592 1504 n_int_minus
SYMBOL cap 832 1344 R0
SYMATTR InstName C_intin
SYMATTR Value 1.000000e-09
WIRE 848 1344 848 1280
FLAG 848 1280 n_demout
WIRE 848 1408 848 1472
FLAG 848 1472 n_int_minus
SYMBOL res 1088 1344 R0
SYMATTR InstName R_intfb
SYMATTR Value 300000
WIRE 1104 1360 1104 1296
FLAG 1104 1296 n_int_pidp
WIRE 1104 1440 1104 1504
FLAG 1104 1504 v_int_out
SYMBOL cap 1344 1344 R0
SYMATTR InstName C_intfb
SYMATTR Value 3.183099e-07
WIRE 1360 1344 1360 1280
FLAG 1360 1280 n_int_minus
WIRE 1360 1408 1360 1472
FLAG 1360 1472 n_int_pidp
SYMBOL cap 1600 1344 R0
SYMATTR InstName C_hf
SYMATTR Value 1.000000e-08
WIRE 1616 1344 1616 1280
FLAG 1616 1280 n_int_pidp
WIRE 1616 1408 1616 1472
FLAG 1616 1472 v_int_out
SYMBOL opamp2 1856 1344 R0
SYMATTR InstName XU_int
SYMATTR Value uopamp_lvl2
SYMATTR Value2 Avol=10meg GBW=4.5meg Rin=100g Rout=10 Iq=600u Ilimit=1 Vrail=100m Vmax=40 Vos=5.000000e-06
WIRE 1856 1376 1792 1376
FLAG 1792 1376 0
WIRE 1856 1408 1792 1408
FLAG 1792 1408 n_int_minus
WIRE 1888 1344 1888 1280
FLAG 1888 1280 vcc
WIRE 1888 1440 1888 1504
FLAG 1888 1504 vee
WIRE 1952 1392 2016 1392
FLAG 2016 1392 v_int_out
SYMBOL voltage 64 1600 R0
SYMATTR InstName V_clamp_hi
SYMATTR Value 0.3
WIRE 80 1600 80 1536
FLAG 80 1536 v_clamp_hi
WIRE 80 1696 80 1760
FLAG 80 1760 0
SYMBOL voltage 320 1600 R0
SYMATTR InstName V_clamp_lo
SYMATTR Value -1.1
WIRE 336 1600 336 1536
FLAG 336 1536 v_clamp_lo
WIRE 336 1696 336 1760
FLAG 336 1760 0
SYMBOL diode 576 1600 R0
SYMATTR InstName D_aw_hi
SYMATTR Value Dclamp
WIRE 592 1600 592 1536
FLAG 592 1536 v_int_out
WIRE 592 1664 592 1728
FLAG 592 1728 v_clamp_hi
SYMBOL diode 832 1600 R0
SYMATTR InstName D_aw_lo
SYMATTR Value Dclamp
WIRE 848 1600 848 1536
FLAG 848 1536 v_clamp_lo
WIRE 848 1664 848 1728
FLAG 848 1728 v_int_out
SYMBOL res 1088 1600 R0
SYMATTR InstName R_inv1
SYMATTR Value 100k
WIRE 1104 1616 1104 1552
FLAG 1104 1552 v_int_out
WIRE 1104 1696 1104 1760
FLAG 1104 1760 n_inv_minus
SYMBOL res 1344 1600 R0
SYMATTR InstName R_inv2
SYMATTR Value 100k
WIRE 1360 1616 1360 1552
FLAG 1360 1552 n_inv_minus
WIRE 1360 1696 1360 1760
FLAG 1360 1760 v_ctl
SYMBOL res 1600 1600 R0
SYMATTR InstName R_btd
SYMATTR Value 100k
WIRE 1616 1616 1616 1552
FLAG 1616 1552 v_drv_atten
WIRE 1616 1696 1616 1760
FLAG 1616 1760 n_btd_mid
SYMBOL cap 1856 1600 R0
SYMATTR InstName C_btd
SYMATTR Value 10u
WIRE 1872 1600 1872 1536
FLAG 1872 1536 n_btd_mid
WIRE 1872 1664 1872 1728
FLAG 1872 1728 n_inv_plus
SYMBOL res 64 1856 R0
SYMATTR InstName R_bts
SYMATTR Value 100k
WIRE 80 1872 80 1808
FLAG 80 1808 n_ap_plus
WIRE 80 1952 80 2016
FLAG 80 2016 n_bts_mid
SYMBOL cap 320 1856 R0
SYMATTR InstName C_bts
SYMATTR Value 10u
WIRE 336 1856 336 1792
FLAG 336 1792 n_bts_mid
WIRE 336 1920 336 1984
FLAG 336 1984 n_inv_plus
SYMBOL res 576 1856 R0
SYMATTR InstName R_btp
SYMATTR Value 18k
WIRE 592 1872 592 1808
FLAG 592 1808 n_inv_plus
WIRE 592 1952 592 2016
FLAG 592 2016 0
SYMBOL opamp2 832 1856 R0
SYMATTR InstName XU_inv
SYMATTR Value uopamp_lvl2
SYMATTR Value2 Avol=10meg GBW=4.5meg Rin=100g Rout=10 Iq=600u Ilimit=1 Vrail=100m Vmax=40 Vos=2.500000e-03
WIRE 832 1888 768 1888
FLAG 768 1888 n_inv_plus
WIRE 832 1920 768 1920
FLAG 768 1920 n_inv_minus
WIRE 864 1856 864 1792
FLAG 864 1792 vcc
WIRE 864 1952 864 2016
FLAG 864 2016 vee
WIRE 928 1904 992 1904
FLAG 992 1904 v_ctl
SYMBOL voltage 1088 1856 R0
SYMATTR InstName V_preset_src
SYMATTR Value 0.5500
WIRE 1104 1856 1104 1792
FLAG 1104 1792 v_preset_node
WIRE 1104 1952 1104 2016
FLAG 1104 2016 0
SYMBOL voltage 1344 1856 R0
SYMATTR InstName V_ss
SYMATTR Value PWL(0 1 9.999900e-02 1 1.000000e-01 0 1 0)
WIRE 1360 1856 1360 1792
FLAG 1360 1792 vss
WIRE 1360 1952 1360 2016
FLAG 1360 2016 0
SYMBOL sw 1600 1856 R0
SYMATTR InstName S_ss
SYMATTR Value swSS
WIRE 1568 1840 1568 1776
FLAG 1568 1776 v_int_out
WIRE 1632 1840 1632 1776
FLAG 1632 1776 v_preset_node
WIRE 1568 1872 1568 1936
FLAG 1568 1936 vss
WIRE 1632 1872 1632 1936
FLAG 1632 1936 0
SYMBOL res 1856 1856 R0
SYMATTR InstName R_atten_top
SYMATTR Value 56k
WIRE 1872 1872 1872 1808
FLAG 1872 1808 v_osc
WIRE 1872 1952 1872 2016
FLAG 1872 2016 v_atten_input
SYMBOL res 64 2112 R0
SYMATTR InstName R_atten_bot
SYMATTR Value 9.1k
WIRE 80 2128 80 2064
FLAG 80 2064 v_atten_input
WIRE 80 2208 80 2272
FLAG 80 2272 0
SYMBOL opamp2 320 2112 R0
SYMATTR InstName XU_buf0
SYMATTR Value uopamp_lvl2
SYMATTR Value2 Avol=10meg GBW=4.5meg Rin=100g Rout=10 Iq=600u Ilimit=1 Vrail=100m Vmax=40 Vos=2.500000e-03
WIRE 320 2144 256 2144
FLAG 256 2144 v_atten_input
WIRE 320 2176 256 2176
FLAG 256 2176 v_drv_atten
WIRE 352 2112 352 2048
FLAG 352 2048 vcc
WIRE 352 2208 352 2272
FLAG 352 2272 vee
WIRE 416 2160 480 2160
FLAG 480 2160 v_drv_atten
SYMBOL opamp2 576 2112 R0
SYMATTR InstName XU_buf_osc
SYMATTR Value uopamp_lvl2
SYMATTR Value2 Avol=10meg GBW=4.5meg Rin=100g Rout=10 Iq=600u Ilimit=1 Vrail=100m Vmax=40 Vos=2.500000e-03
WIRE 576 2144 512 2144
FLAG 512 2144 v_drv_atten
WIRE 576 2176 512 2176
FLAG 512 2176 n_buf_osc_fb
WIRE 608 2112 608 2048
FLAG 608 2048 vcc
WIRE 608 2208 608 2272
FLAG 608 2272 vee
WIRE 672 2160 736 2160
FLAG 736 2160 n_buf_osc_out
SYMBOL res 832 2112 R0
SYMATTR InstName R_buf1_fb1
SYMATTR Value 6200
WIRE 848 2128 848 2064
FLAG 848 2064 v_osc_drive
WIRE 848 2208 848 2272
FLAG 848 2272 n_buf_osc_fb
SYMBOL res 1088 2112 R0
SYMATTR InstName R_buf1_fb2
SYMATTR Value 1k
WIRE 1104 2128 1104 2064
FLAG 1104 2064 n_buf_osc_fb
WIRE 1104 2208 1104 2272
FLAG 1104 2272 0
SYMBOL res 1344 2112 R0
SYMATTR InstName R_obb_top
SYMATTR Value 680
WIRE 1360 2128 1360 2064
FLAG 1360 2064 vcc
WIRE 1360 2208 1360 2272
FLAG 1360 2272 q_o_bn
SYMBOL diode 1600 2112 R0
SYMATTR InstName D_obb_top
SYMATTR Value Dbias
WIRE 1616 2112 1616 2048
FLAG 1616 2048 q_o_bn
WIRE 1616 2176 1616 2240
FLAG 1616 2240 n_buf_osc_out
SYMBOL diode 1856 2112 R0
SYMATTR InstName D_obb_bot
SYMATTR Value Dbias
WIRE 1872 2112 1872 2048
FLAG 1872 2048 n_buf_osc_out
WIRE 1872 2176 1872 2240
FLAG 1872 2240 q_o_bp
SYMBOL res 64 2368 R0
SYMATTR InstName R_obb_bot
SYMATTR Value 680
WIRE 80 2384 80 2320
FLAG 80 2320 q_o_bp
WIRE 80 2464 80 2528
FLAG 80 2528 vee
SYMBOL npn 320 2368 R0
SYMATTR InstName Q_o_npn
SYMATTR Value QBC337
WIRE 384 2384 384 2320
FLAG 384 2320 vcc
WIRE 336 2432 272 2432
FLAG 272 2432 q_o_bn
WIRE 384 2464 384 2528
FLAG 384 2528 v_osc_drive
SYMBOL pnp 576 2368 R0
SYMATTR InstName Q_o_pnp
SYMATTR Value QBC327
WIRE 640 2384 640 2320
FLAG 640 2320 vee
WIRE 592 2432 528 2432
FLAG 528 2432 q_o_bp
WIRE 640 2464 640 2528
FLAG 640 2528 v_osc_drive
SYMBOL opamp2 832 2368 R0
SYMATTR InstName XU_buf_ap
SYMATTR Value uopamp_lvl2
SYMATTR Value2 Avol=10meg GBW=4.5meg Rin=100g Rout=10 Iq=600u Ilimit=1 Vrail=100m Vmax=40 Vos=2.500000e-03
WIRE 832 2400 768 2400
FLAG 768 2400 v_ap
WIRE 832 2432 768 2432
FLAG 768 2432 n_buf_ap_fb
WIRE 864 2368 864 2304
FLAG 864 2304 vcc
WIRE 864 2464 864 2528
FLAG 864 2528 vee
WIRE 928 2416 992 2416
FLAG 992 2416 n_buf_ap_out
SYMBOL res 1088 2368 R0
SYMATTR InstName R_buf2_fb1
SYMATTR Value 6200
WIRE 1104 2384 1104 2320
FLAG 1104 2320 v_ap_drive
WIRE 1104 2464 1104 2528
FLAG 1104 2528 n_buf_ap_fb
SYMBOL res 1344 2368 R0
SYMATTR InstName R_buf2_fb2
SYMATTR Value 1k
WIRE 1360 2384 1360 2320
FLAG 1360 2320 n_buf_ap_fb
WIRE 1360 2464 1360 2528
FLAG 1360 2528 0
SYMBOL res 1600 2368 R0
SYMATTR InstName R_abb_top
SYMATTR Value 680
WIRE 1616 2384 1616 2320
FLAG 1616 2320 vcc
WIRE 1616 2464 1616 2528
FLAG 1616 2528 q_a_bn
SYMBOL diode 1856 2368 R0
SYMATTR InstName D_abb_top
SYMATTR Value Dbias
WIRE 1872 2368 1872 2304
FLAG 1872 2304 q_a_bn
WIRE 1872 2432 1872 2496
FLAG 1872 2496 n_buf_ap_out
SYMBOL diode 64 2624 R0
SYMATTR InstName D_abb_bot
SYMATTR Value Dbias
WIRE 80 2624 80 2560
FLAG 80 2560 n_buf_ap_out
WIRE 80 2688 80 2752
FLAG 80 2752 q_a_bp
SYMBOL res 320 2624 R0
SYMATTR InstName R_abb_bot
SYMATTR Value 680
WIRE 336 2640 336 2576
FLAG 336 2576 q_a_bp
WIRE 336 2720 336 2784
FLAG 336 2784 vee
SYMBOL npn 576 2624 R0
SYMATTR InstName Q_a_npn
SYMATTR Value QBC337
WIRE 640 2640 640 2576
FLAG 640 2576 vcc
WIRE 592 2688 528 2688
FLAG 528 2688 q_a_bn
WIRE 640 2720 640 2784
FLAG 640 2784 v_ap_drive
SYMBOL pnp 832 2624 R0
SYMATTR InstName Q_a_pnp
SYMATTR Value QBC327
WIRE 896 2640 896 2576
FLAG 896 2576 vee
WIRE 848 2688 784 2688
FLAG 784 2688 q_a_bp
WIRE 896 2720 896 2784
FLAG 896 2784 v_ap_drive
TEXT 64 3072 Left 2 !.include /home/user/smps-design-tools/ngspice_examples/uopamp.lib\n.param T_amb=300.0\n.param R_amb=6.16407\n.param sigma_eps_A=1.245330e-13\n.param C_th=2.550436e-05\n.param fil_exp=1.2000\n.model J2N5457 NJF(Vto=-2.5000 Beta=1.0000e-03 Lambda=0)\n.subckt filament v_top v_bot T_node r_fil\n.ends filament\n.model swMod SW(VT=0 VH=0.1 RON=10 ROFF=1G)\n.model Dclamp D(IS=1n N=2.0 RS=100)\n.model swSS SW(VT=0.5 VH=0 RON=0.01 ROFF=1G)\n.model Dbias  D(IS=2.52n N=1.752 RS=0.568 BV=80 IBV=0.1m CJO=4p)\n.model QBC337 NPN(IS=1e-14 BF=300 BR=10 RB=10 RC=0.5 RE=0.1 IKF=0.8 CJC=11p CJE=20p VAF=100)\n.model QBC327 PNP(IS=1e-14 BF=300 BR=10 RB=10 RC=0.5 RE=0.1 IKF=0.8 CJC=11p CJE=20p VAF=100)\n.model Q2N3904 NPN(IS=6.734f XTI=3 EG=1.11 VAF=74.03 BF=416.4 NE=1.259 ISE=6.734f IKF=66.78m XTB=1.5 BR=.7371 NC=2 ISC=0 IKR=0 RC=1 CJC=3.638p MJC=.3085 VJC=.75 FC=.5 CJE=4.493p MJE=.2593 VJE=.75 TR=239.5n TF=301.2p ITF=.4 VTF=4 XTF=2 RB=10)\n.options reltol=1e-6 abstol=1p chgtol=1f\n.tran 10u 5.0 UIC\n.control\n* run\n* wrdata /home/user/smps-design-tools/ngspice_examples/_unused.data v(v_osc_drive) v(v_ap_drive) v(node_A) v(node_B) v(n_diff) v(n_demout) v(v_ctl) v(v_int_out) v(T_node) v(r_fil)\n.endcontrol\n.end
